data_image0
_cell_length_a       184.764
_cell_length_b       184.764
_cell_length_c       39.3476
_cell_angle_alpha    90
_cell_angle_beta     90
_cell_angle_gamma    60

_symmetry_space_group_name_H-M    "P 1"
_symmetry_int_tables_number       1

loop_
  _symmetry_equiv_pos_as_xyz
  'x, y, z'

loop_
  _atom_site_label
  _atom_site_occupancy
  _atom_site_fract_x
  _atom_site_fract_y
  _atom_site_fract_z
  _atom_site_thermal_displace_type
  _atom_site_B_iso_or_equiv
  _atom_site_type_symbol
  O1       1.0000 0.03779  0.03374  0.64000  Biso   1.000  O 
  O2       1.0000 0.04588  0.01350  0.64000  Biso   1.000  O 
  O3       1.0000 0.05803  0.02159  0.64000  Biso   1.000  O 
  O4       1.0000 0.02564  0.02564  0.64000  Biso   1.000  O 
  O5       1.0000 0.04993  0.04184  0.64000  Biso   1.000  O 
  O6       1.0000 0.01754  0.04588  0.64000  Biso   1.000  O 
  O7       1.0000 0.02969  0.05398  0.64000  Biso   1.000  O 
  O8       1.0000 0.07018  0.02969  0.64000  Biso   1.000  O 
  O9       1.0000 0.00135  0.00945  0.64000  Biso   1.000  O 
  O10      1.0000 0.01350  0.01754  0.64000  Biso   1.000  O 
  O11      1.0000 0.06208  0.04993  0.64000  Biso   1.000  O 
  O12      1.0000 0.07422  0.05803  0.64000  Biso   1.000  O 
  O13      1.0000 0.00540  0.03779  0.64000  Biso   1.000  O 
  O14      1.0000 0.04184  0.06208  0.64000  Biso   1.000  O 
  O15      1.0000 0.05398  0.07018  0.64000  Biso   1.000  O 
  O16      1.0000 0.03374  0.00540  0.64000  Biso   1.000  O 
  O17      1.0000 0.03779  0.11066  0.64000  Biso   1.000  O 
  O18      1.0000 0.04588  0.09042  0.64000  Biso   1.000  O 
  O19      1.0000 0.05803  0.09852  0.64000  Biso   1.000  O 
  O20      1.0000 0.02564  0.10256  0.64000  Biso   1.000  O 
  O21      1.0000 0.04993  0.11876  0.64000  Biso   1.000  O 
  O22      1.0000 0.01754  0.12281  0.64000  Biso   1.000  O 
  O23      1.0000 0.02969  0.13090  0.64000  Biso   1.000  O 
  O24      1.0000 0.07018  0.10661  0.64000  Biso   1.000  O 
  O25      1.0000 0.00135  0.08637  0.64000  Biso   1.000  O 
  O26      1.0000 0.01350  0.09447  0.64000  Biso   1.000  O 
  O27      1.0000 0.06208  0.12686  0.64000  Biso   1.000  O 
  O28      1.0000 0.07422  0.13495  0.64000  Biso   1.000  O 
  O29      1.0000 0.00540  0.11471  0.64000  Biso   1.000  O 
  O30      1.0000 0.04184  0.13900  0.64000  Biso   1.000  O 
  O31      1.0000 0.05398  0.14710  0.64000  Biso   1.000  O 
  O32      1.0000 0.03374  0.08232  0.64000  Biso   1.000  O 
  O33      1.0000 0.03779  0.18758  0.64000  Biso   1.000  O 
  O34      1.0000 0.04588  0.16734  0.64000  Biso   1.000  O 
  O35      1.0000 0.05803  0.17544  0.64000  Biso   1.000  O 
  O36      1.0000 0.02564  0.17949  0.64000  Biso   1.000  O 
  O37      1.0000 0.04993  0.19568  0.64000  Biso   1.000  O 
  O38      1.0000 0.01754  0.19973  0.64000  Biso   1.000  O 
  O39      1.0000 0.02969  0.20783  0.64000  Biso   1.000  O 
  O40      1.0000 0.07018  0.18354  0.64000  Biso   1.000  O 
  O41      1.0000 0.00135  0.16329  0.64000  Biso   1.000  O 
  O42      1.0000 0.01350  0.17139  0.64000  Biso   1.000  O 
  O43      1.0000 0.06208  0.20378  0.64000  Biso   1.000  O 
  O44      1.0000 0.07422  0.21188  0.64000  Biso   1.000  O 
  O45      1.0000 0.00540  0.19163  0.64000  Biso   1.000  O 
  O46      1.0000 0.04184  0.21592  0.64000  Biso   1.000  O 
  O47      1.0000 0.05398  0.22402  0.64000  Biso   1.000  O 
  O48      1.0000 0.03374  0.15924  0.64000  Biso   1.000  O 
  O49      1.0000 0.03779  0.26451  0.64000  Biso   1.000  O 
  O50      1.0000 0.04588  0.24426  0.64000  Biso   1.000  O 
  O51      1.0000 0.05803  0.25236  0.64000  Biso   1.000  O 
  O52      1.0000 0.02564  0.25641  0.64000  Biso   1.000  O 
  O53      1.0000 0.04993  0.27260  0.64000  Biso   1.000  O 
  O54      1.0000 0.01754  0.27665  0.64000  Biso   1.000  O 
  O55      1.0000 0.02969  0.28475  0.64000  Biso   1.000  O 
  O56      1.0000 0.07018  0.26046  0.64000  Biso   1.000  O 
  O57      1.0000 0.00135  0.24022  0.64000  Biso   1.000  O 
  O58      1.0000 0.01350  0.24831  0.64000  Biso   1.000  O 
  O59      1.0000 0.06208  0.28070  0.64000  Biso   1.000  O 
  O60      1.0000 0.07422  0.28880  0.64000  Biso   1.000  O 
  O61      1.0000 0.00540  0.26856  0.64000  Biso   1.000  O 
  O62      1.0000 0.04184  0.29285  0.64000  Biso   1.000  O 
  O63      1.0000 0.05398  0.30094  0.64000  Biso   1.000  O 
  O64      1.0000 0.03374  0.23617  0.64000  Biso   1.000  O 
  O65      1.0000 0.03779  0.34143  0.64000  Biso   1.000  O 
  O66      1.0000 0.04588  0.32119  0.64000  Biso   1.000  O 
  O67      1.0000 0.05803  0.32928  0.64000  Biso   1.000  O 
  O68      1.0000 0.02564  0.33333  0.64000  Biso   1.000  O 
  O69      1.0000 0.04993  0.34953  0.64000  Biso   1.000  O 
  O70      1.0000 0.01754  0.35358  0.64000  Biso   1.000  O 
  O71      1.0000 0.02969  0.36167  0.64000  Biso   1.000  O 
  O72      1.0000 0.07018  0.33738  0.64000  Biso   1.000  O 
  O73      1.0000 0.00135  0.31714  0.64000  Biso   1.000  O 
  O74      1.0000 0.01350  0.32524  0.64000  Biso   1.000  O 
  O75      1.0000 0.06208  0.35762  0.64000  Biso   1.000  O 
  O76      1.0000 0.07422  0.36572  0.64000  Biso   1.000  O 
  O77      1.0000 0.00540  0.34548  0.64000  Biso   1.000  O 
  O78      1.0000 0.04184  0.36977  0.64000  Biso   1.000  O 
  O79      1.0000 0.05398  0.37787  0.64000  Biso   1.000  O 
  O80      1.0000 0.03374  0.31309  0.64000  Biso   1.000  O 
  O81      1.0000 0.03779  0.41835  0.64000  Biso   1.000  O 
  O82      1.0000 0.04588  0.39811  0.64000  Biso   1.000  O 
  O83      1.0000 0.05803  0.40621  0.64000  Biso   1.000  O 
  O84      1.0000 0.02564  0.41026  0.64000  Biso   1.000  O 
  O85      1.0000 0.04993  0.42645  0.64000  Biso   1.000  O 
  O86      1.0000 0.01754  0.43050  0.64000  Biso   1.000  O 
  O87      1.0000 0.02969  0.43860  0.64000  Biso   1.000  O 
  O88      1.0000 0.07018  0.41430  0.64000  Biso   1.000  O 
  O89      1.0000 0.00135  0.39406  0.64000  Biso   1.000  O 
  O90      1.0000 0.01350  0.40216  0.64000  Biso   1.000  O 
  O91      1.0000 0.06208  0.43455  0.64000  Biso   1.000  O 
  O92      1.0000 0.07422  0.44265  0.64000  Biso   1.000  O 
  O93      1.0000 0.00540  0.42240  0.64000  Biso   1.000  O 
  O94      1.0000 0.04184  0.44669  0.64000  Biso   1.000  O 
  O95      1.0000 0.05398  0.45479  0.64000  Biso   1.000  O 
  O96      1.0000 0.03374  0.39001  0.64000  Biso   1.000  O 
  O97      1.0000 0.03779  0.49528  0.64000  Biso   1.000  O 
  O98      1.0000 0.04588  0.47503  0.64000  Biso   1.000  O 
  O99      1.0000 0.05803  0.48313  0.64000  Biso   1.000  O 
  O100     1.0000 0.02564  0.48718  0.64000  Biso   1.000  O 
  O101     1.0000 0.04993  0.50337  0.64000  Biso   1.000  O 
  O102     1.0000 0.01754  0.50742  0.64000  Biso   1.000  O 
  O103     1.0000 0.02969  0.51552  0.64000  Biso   1.000  O 
  O104     1.0000 0.07018  0.49123  0.64000  Biso   1.000  O 
  O105     1.0000 0.00135  0.47099  0.64000  Biso   1.000  O 
  O106     1.0000 0.01350  0.47908  0.64000  Biso   1.000  O 
  O107     1.0000 0.06208  0.51147  0.64000  Biso   1.000  O 
  O108     1.0000 0.07422  0.51957  0.64000  Biso   1.000  O 
  O109     1.0000 0.00540  0.49933  0.64000  Biso   1.000  O 
  O110     1.0000 0.04184  0.52362  0.64000  Biso   1.000  O 
  O111     1.0000 0.05398  0.53171  0.64000  Biso   1.000  O 
  O112     1.0000 0.03374  0.46694  0.64000  Biso   1.000  O 
  O113     1.0000 0.03779  0.57220  0.64000  Biso   1.000  O 
  O114     1.0000 0.04588  0.55196  0.64000  Biso   1.000  O 
  O115     1.0000 0.05803  0.56005  0.64000  Biso   1.000  O 
  O116     1.0000 0.02564  0.56410  0.64000  Biso   1.000  O 
  O117     1.0000 0.04993  0.58030  0.64000  Biso   1.000  O 
  O118     1.0000 0.01754  0.58435  0.64000  Biso   1.000  O 
  O119     1.0000 0.02969  0.59244  0.64000  Biso   1.000  O 
  O120     1.0000 0.07018  0.56815  0.64000  Biso   1.000  O 
  O121     1.0000 0.00135  0.54791  0.64000  Biso   1.000  O 
  O122     1.0000 0.01350  0.55601  0.64000  Biso   1.000  O 
  O123     1.0000 0.06208  0.58839  0.64000  Biso   1.000  O 
  O124     1.0000 0.07422  0.59649  0.64000  Biso   1.000  O 
  O125     1.0000 0.00540  0.57625  0.64000  Biso   1.000  O 
  O126     1.0000 0.04184  0.60054  0.64000  Biso   1.000  O 
  O127     1.0000 0.05398  0.60864  0.64000  Biso   1.000  O 
  O128     1.0000 0.03374  0.54386  0.64000  Biso   1.000  O 
  O129     1.0000 0.03779  0.64912  0.64000  Biso   1.000  O 
  O130     1.0000 0.04588  0.62888  0.64000  Biso   1.000  O 
  O131     1.0000 0.05803  0.63698  0.64000  Biso   1.000  O 
  O132     1.0000 0.02564  0.64103  0.64000  Biso   1.000  O 
  O133     1.0000 0.04993  0.65722  0.64000  Biso   1.000  O 
  O134     1.0000 0.01754  0.66127  0.64000  Biso   1.000  O 
  O135     1.0000 0.02969  0.66937  0.64000  Biso   1.000  O 
  O136     1.0000 0.07018  0.64507  0.64000  Biso   1.000  O 
  O137     1.0000 0.00135  0.62483  0.64000  Biso   1.000  O 
  O138     1.0000 0.01350  0.63293  0.64000  Biso   1.000  O 
  O139     1.0000 0.06208  0.66532  0.64000  Biso   1.000  O 
  O140     1.0000 0.07422  0.67341  0.64000  Biso   1.000  O 
  O141     1.0000 0.00540  0.65317  0.64000  Biso   1.000  O 
  O142     1.0000 0.04184  0.67746  0.64000  Biso   1.000  O 
  O143     1.0000 0.05398  0.68556  0.64000  Biso   1.000  O 
  O144     1.0000 0.03374  0.62078  0.64000  Biso   1.000  O 
  O145     1.0000 0.03779  0.72605  0.64000  Biso   1.000  O 
  O146     1.0000 0.04588  0.70580  0.64000  Biso   1.000  O 
  O147     1.0000 0.05803  0.71390  0.64000  Biso   1.000  O 
  O148     1.0000 0.02564  0.71795  0.64000  Biso   1.000  O 
  O149     1.0000 0.04993  0.73414  0.64000  Biso   1.000  O 
  O150     1.0000 0.01754  0.73819  0.64000  Biso   1.000  O 
  O151     1.0000 0.02969  0.74629  0.64000  Biso   1.000  O 
  O152     1.0000 0.07018  0.72200  0.64000  Biso   1.000  O 
  O153     1.0000 0.00135  0.70175  0.64000  Biso   1.000  O 
  O154     1.0000 0.01350  0.70985  0.64000  Biso   1.000  O 
  O155     1.0000 0.06208  0.74224  0.64000  Biso   1.000  O 
  O156     1.0000 0.07422  0.75034  0.64000  Biso   1.000  O 
  O157     1.0000 0.00540  0.73009  0.64000  Biso   1.000  O 
  O158     1.0000 0.04184  0.75439  0.64000  Biso   1.000  O 
  O159     1.0000 0.05398  0.76248  0.64000  Biso   1.000  O 
  O160     1.0000 0.03374  0.69771  0.64000  Biso   1.000  O 
  O161     1.0000 0.03779  0.80297  0.64000  Biso   1.000  O 
  O162     1.0000 0.04588  0.78273  0.64000  Biso   1.000  O 
  O163     1.0000 0.05803  0.79082  0.64000  Biso   1.000  O 
  O164     1.0000 0.02564  0.79487  0.64000  Biso   1.000  O 
  O165     1.0000 0.04993  0.81107  0.64000  Biso   1.000  O 
  O166     1.0000 0.01754  0.81511  0.64000  Biso   1.000  O 
  O167     1.0000 0.02969  0.82321  0.64000  Biso   1.000  O 
  O168     1.0000 0.07018  0.79892  0.64000  Biso   1.000  O 
  O169     1.0000 0.00135  0.77868  0.64000  Biso   1.000  O 
  O170     1.0000 0.01350  0.78677  0.64000  Biso   1.000  O 
  O171     1.0000 0.06208  0.81916  0.64000  Biso   1.000  O 
  O172     1.0000 0.07422  0.82726  0.64000  Biso   1.000  O 
  O173     1.0000 0.00540  0.80702  0.64000  Biso   1.000  O 
  O174     1.0000 0.04184  0.83131  0.64000  Biso   1.000  O 
  O175     1.0000 0.05398  0.83941  0.64000  Biso   1.000  O 
  O176     1.0000 0.03374  0.77463  0.64000  Biso   1.000  O 
  O177     1.0000 0.03779  0.87989  0.64000  Biso   1.000  O 
  O178     1.0000 0.04588  0.85965  0.64000  Biso   1.000  O 
  O179     1.0000 0.05803  0.86775  0.64000  Biso   1.000  O 
  O180     1.0000 0.02564  0.87179  0.64000  Biso   1.000  O 
  O181     1.0000 0.04993  0.88799  0.64000  Biso   1.000  O 
  O182     1.0000 0.01754  0.89204  0.64000  Biso   1.000  O 
  O183     1.0000 0.02969  0.90013  0.64000  Biso   1.000  O 
  O184     1.0000 0.07018  0.87584  0.64000  Biso   1.000  O 
  O185     1.0000 0.00135  0.85560  0.64000  Biso   1.000  O 
  O186     1.0000 0.01350  0.86370  0.64000  Biso   1.000  O 
  O187     1.0000 0.06208  0.89609  0.64000  Biso   1.000  O 
  O188     1.0000 0.07422  0.90418  0.64000  Biso   1.000  O 
  O189     1.0000 0.00540  0.88394  0.64000  Biso   1.000  O 
  O190     1.0000 0.04184  0.90823  0.64000  Biso   1.000  O 
  O191     1.0000 0.05398  0.91633  0.64000  Biso   1.000  O 
  O192     1.0000 0.03374  0.85155  0.64000  Biso   1.000  O 
  O193     1.0000 0.03779  0.95682  0.64000  Biso   1.000  O 
  O194     1.0000 0.04588  0.93657  0.64000  Biso   1.000  O 
  O195     1.0000 0.05803  0.94467  0.64000  Biso   1.000  O 
  O196     1.0000 0.02564  0.94872  0.64000  Biso   1.000  O 
  O197     1.0000 0.04993  0.96491  0.64000  Biso   1.000  O 
  O198     1.0000 0.01754  0.96896  0.64000  Biso   1.000  O 
  O199     1.0000 0.02969  0.97706  0.64000  Biso   1.000  O 
  O200     1.0000 0.07018  0.95277  0.64000  Biso   1.000  O 
  O201     1.0000 0.00135  0.93252  0.64000  Biso   1.000  O 
  O202     1.0000 0.01350  0.94062  0.64000  Biso   1.000  O 
  O203     1.0000 0.06208  0.97301  0.64000  Biso   1.000  O 
  O204     1.0000 0.07422  0.98111  0.64000  Biso   1.000  O 
  O205     1.0000 0.00540  0.96086  0.64000  Biso   1.000  O 
  O206     1.0000 0.04184  0.98516  0.64000  Biso   1.000  O 
  O207     1.0000 0.05398  0.99325  0.64000  Biso   1.000  O 
  O208     1.0000 0.03374  0.92848  0.64000  Biso   1.000  O 
  O209     1.0000 0.11471  0.03374  0.64000  Biso   1.000  O 
  O210     1.0000 0.12281  0.01350  0.64000  Biso   1.000  O 
  O211     1.0000 0.13495  0.02159  0.64000  Biso   1.000  O 
  O212     1.0000 0.10256  0.02564  0.64000  Biso   1.000  O 
  O213     1.0000 0.12686  0.04184  0.64000  Biso   1.000  O 
  O214     1.0000 0.09447  0.04588  0.64000  Biso   1.000  O 
  O215     1.0000 0.10661  0.05398  0.64000  Biso   1.000  O 
  O216     1.0000 0.14710  0.02969  0.64000  Biso   1.000  O 
  O217     1.0000 0.07827  0.00945  0.64000  Biso   1.000  O 
  O218     1.0000 0.09042  0.01754  0.64000  Biso   1.000  O 
  O219     1.0000 0.13900  0.04993  0.64000  Biso   1.000  O 
  O220     1.0000 0.15115  0.05803  0.64000  Biso   1.000  O 
  O221     1.0000 0.08232  0.03779  0.64000  Biso   1.000  O 
  O222     1.0000 0.11876  0.06208  0.64000  Biso   1.000  O 
  O223     1.0000 0.13090  0.07018  0.64000  Biso   1.000  O 
  O224     1.0000 0.11066  0.00540  0.64000  Biso   1.000  O 
  O225     1.0000 0.11471  0.11066  0.64000  Biso   1.000  O 
  O226     1.0000 0.12281  0.09042  0.64000  Biso   1.000  O 
  O227     1.0000 0.13495  0.09852  0.64000  Biso   1.000  O 
  O228     1.0000 0.10256  0.10256  0.64000  Biso   1.000  O 
  O229     1.0000 0.12686  0.11876  0.64000  Biso   1.000  O 
  O230     1.0000 0.09447  0.12281  0.64000  Biso   1.000  O 
  O231     1.0000 0.10661  0.13090  0.64000  Biso   1.000  O 
  O232     1.0000 0.14710  0.10661  0.64000  Biso   1.000  O 
  O233     1.0000 0.07827  0.08637  0.64000  Biso   1.000  O 
  O234     1.0000 0.09042  0.09447  0.64000  Biso   1.000  O 
  O235     1.0000 0.13900  0.12686  0.64000  Biso   1.000  O 
  O236     1.0000 0.15115  0.13495  0.64000  Biso   1.000  O 
  O237     1.0000 0.08232  0.11471  0.64000  Biso   1.000  O 
  O238     1.0000 0.11876  0.13900  0.64000  Biso   1.000  O 
  O239     1.0000 0.13090  0.14710  0.64000  Biso   1.000  O 
  O240     1.0000 0.11066  0.08232  0.64000  Biso   1.000  O 
  O241     1.0000 0.11471  0.18758  0.64000  Biso   1.000  O 
  O242     1.0000 0.12281  0.16734  0.64000  Biso   1.000  O 
  O243     1.0000 0.13495  0.17544  0.64000  Biso   1.000  O 
  O244     1.0000 0.10256  0.17949  0.64000  Biso   1.000  O 
  O245     1.0000 0.12686  0.19568  0.64000  Biso   1.000  O 
  O246     1.0000 0.09447  0.19973  0.64000  Biso   1.000  O 
  O247     1.0000 0.10661  0.20783  0.64000  Biso   1.000  O 
  O248     1.0000 0.14710  0.18354  0.64000  Biso   1.000  O 
  O249     1.0000 0.07827  0.16329  0.64000  Biso   1.000  O 
  O250     1.0000 0.09042  0.17139  0.64000  Biso   1.000  O 
  O251     1.0000 0.13900  0.20378  0.64000  Biso   1.000  O 
  O252     1.0000 0.15115  0.21188  0.64000  Biso   1.000  O 
  O253     1.0000 0.08232  0.19163  0.64000  Biso   1.000  O 
  O254     1.0000 0.11876  0.21592  0.64000  Biso   1.000  O 
  O255     1.0000 0.13090  0.22402  0.64000  Biso   1.000  O 
  O256     1.0000 0.11066  0.15924  0.64000  Biso   1.000  O 
  O257     1.0000 0.11471  0.26451  0.64000  Biso   1.000  O 
  O258     1.0000 0.12281  0.24426  0.64000  Biso   1.000  O 
  O259     1.0000 0.13495  0.25236  0.64000  Biso   1.000  O 
  O260     1.0000 0.10256  0.25641  0.64000  Biso   1.000  O 
  O261     1.0000 0.12686  0.27260  0.64000  Biso   1.000  O 
  O262     1.0000 0.09447  0.27665  0.64000  Biso   1.000  O 
  O263     1.0000 0.10661  0.28475  0.64000  Biso   1.000  O 
  O264     1.0000 0.14710  0.26046  0.64000  Biso   1.000  O 
  O265     1.0000 0.07827  0.24022  0.64000  Biso   1.000  O 
  O266     1.0000 0.09042  0.24831  0.64000  Biso   1.000  O 
  O267     1.0000 0.13900  0.28070  0.64000  Biso   1.000  O 
  O268     1.0000 0.15115  0.28880  0.64000  Biso   1.000  O 
  O269     1.0000 0.08232  0.26856  0.64000  Biso   1.000  O 
  O270     1.0000 0.11876  0.29285  0.64000  Biso   1.000  O 
  O271     1.0000 0.13090  0.30094  0.64000  Biso   1.000  O 
  O272     1.0000 0.11066  0.23617  0.64000  Biso   1.000  O 
  O273     1.0000 0.11471  0.34143  0.64000  Biso   1.000  O 
  O274     1.0000 0.12281  0.32119  0.64000  Biso   1.000  O 
  O275     1.0000 0.13495  0.32928  0.64000  Biso   1.000  O 
  O276     1.0000 0.10256  0.33333  0.64000  Biso   1.000  O 
  O277     1.0000 0.12686  0.34953  0.64000  Biso   1.000  O 
  O278     1.0000 0.09447  0.35358  0.64000  Biso   1.000  O 
  O279     1.0000 0.10661  0.36167  0.64000  Biso   1.000  O 
  O280     1.0000 0.14710  0.33738  0.64000  Biso   1.000  O 
  O281     1.0000 0.07827  0.31714  0.64000  Biso   1.000  O 
  O282     1.0000 0.09042  0.32524  0.64000  Biso   1.000  O 
  O283     1.0000 0.13900  0.35762  0.64000  Biso   1.000  O 
  O284     1.0000 0.15115  0.36572  0.64000  Biso   1.000  O 
  O285     1.0000 0.08232  0.34548  0.64000  Biso   1.000  O 
  O286     1.0000 0.11876  0.36977  0.64000  Biso   1.000  O 
  O287     1.0000 0.13090  0.37787  0.64000  Biso   1.000  O 
  O288     1.0000 0.11066  0.31309  0.64000  Biso   1.000  O 
  O289     1.0000 0.11471  0.41835  0.64000  Biso   1.000  O 
  O290     1.0000 0.12281  0.39811  0.64000  Biso   1.000  O 
  O291     1.0000 0.13495  0.40621  0.64000  Biso   1.000  O 
  O292     1.0000 0.10256  0.41026  0.64000  Biso   1.000  O 
  O293     1.0000 0.12686  0.42645  0.64000  Biso   1.000  O 
  O294     1.0000 0.09447  0.43050  0.64000  Biso   1.000  O 
  O295     1.0000 0.10661  0.43860  0.64000  Biso   1.000  O 
  O296     1.0000 0.14710  0.41430  0.64000  Biso   1.000  O 
  O297     1.0000 0.07827  0.39406  0.64000  Biso   1.000  O 
  O298     1.0000 0.09042  0.40216  0.64000  Biso   1.000  O 
  O299     1.0000 0.13900  0.43455  0.64000  Biso   1.000  O 
  O300     1.0000 0.15115  0.44265  0.64000  Biso   1.000  O 
  O301     1.0000 0.08232  0.42240  0.64000  Biso   1.000  O 
  O302     1.0000 0.11876  0.44669  0.64000  Biso   1.000  O 
  O303     1.0000 0.13090  0.45479  0.64000  Biso   1.000  O 
  O304     1.0000 0.11066  0.39001  0.64000  Biso   1.000  O 
  O305     1.0000 0.11471  0.49528  0.64000  Biso   1.000  O 
  O306     1.0000 0.12281  0.47503  0.64000  Biso   1.000  O 
  O307     1.0000 0.13495  0.48313  0.64000  Biso   1.000  O 
  O308     1.0000 0.10256  0.48718  0.64000  Biso   1.000  O 
  O309     1.0000 0.12686  0.50337  0.64000  Biso   1.000  O 
  O310     1.0000 0.09447  0.50742  0.64000  Biso   1.000  O 
  O311     1.0000 0.10661  0.51552  0.64000  Biso   1.000  O 
  O312     1.0000 0.14710  0.49123  0.64000  Biso   1.000  O 
  O313     1.0000 0.07827  0.47099  0.64000  Biso   1.000  O 
  O314     1.0000 0.09042  0.47908  0.64000  Biso   1.000  O 
  O315     1.0000 0.13900  0.51147  0.64000  Biso   1.000  O 
  O316     1.0000 0.15115  0.51957  0.64000  Biso   1.000  O 
  O317     1.0000 0.08232  0.49933  0.64000  Biso   1.000  O 
  O318     1.0000 0.11876  0.52362  0.64000  Biso   1.000  O 
  O319     1.0000 0.13090  0.53171  0.64000  Biso   1.000  O 
  O320     1.0000 0.11066  0.46694  0.64000  Biso   1.000  O 
  O321     1.0000 0.11471  0.57220  0.64000  Biso   1.000  O 
  O322     1.0000 0.12281  0.55196  0.64000  Biso   1.000  O 
  O323     1.0000 0.13495  0.56005  0.64000  Biso   1.000  O 
  O324     1.0000 0.10256  0.56410  0.64000  Biso   1.000  O 
  O325     1.0000 0.12686  0.58030  0.64000  Biso   1.000  O 
  O326     1.0000 0.09447  0.58435  0.64000  Biso   1.000  O 
  O327     1.0000 0.10661  0.59244  0.64000  Biso   1.000  O 
  O328     1.0000 0.14710  0.56815  0.64000  Biso   1.000  O 
  O329     1.0000 0.07827  0.54791  0.64000  Biso   1.000  O 
  O330     1.0000 0.09042  0.55601  0.64000  Biso   1.000  O 
  O331     1.0000 0.13900  0.58839  0.64000  Biso   1.000  O 
  O332     1.0000 0.15115  0.59649  0.64000  Biso   1.000  O 
  O333     1.0000 0.08232  0.57625  0.64000  Biso   1.000  O 
  O334     1.0000 0.11876  0.60054  0.64000  Biso   1.000  O 
  O335     1.0000 0.13090  0.60864  0.64000  Biso   1.000  O 
  O336     1.0000 0.11066  0.54386  0.64000  Biso   1.000  O 
  O337     1.0000 0.11471  0.64912  0.64000  Biso   1.000  O 
  O338     1.0000 0.12281  0.62888  0.64000  Biso   1.000  O 
  O339     1.0000 0.13495  0.63698  0.64000  Biso   1.000  O 
  O340     1.0000 0.10256  0.64103  0.64000  Biso   1.000  O 
  O341     1.0000 0.12686  0.65722  0.64000  Biso   1.000  O 
  O342     1.0000 0.09447  0.66127  0.64000  Biso   1.000  O 
  O343     1.0000 0.10661  0.66937  0.64000  Biso   1.000  O 
  O344     1.0000 0.14710  0.64507  0.64000  Biso   1.000  O 
  O345     1.0000 0.07827  0.62483  0.64000  Biso   1.000  O 
  O346     1.0000 0.09042  0.63293  0.64000  Biso   1.000  O 
  O347     1.0000 0.13900  0.66532  0.64000  Biso   1.000  O 
  O348     1.0000 0.15115  0.67341  0.64000  Biso   1.000  O 
  O349     1.0000 0.08232  0.65317  0.64000  Biso   1.000  O 
  O350     1.0000 0.11876  0.67746  0.64000  Biso   1.000  O 
  O351     1.0000 0.13090  0.68556  0.64000  Biso   1.000  O 
  O352     1.0000 0.11066  0.62078  0.64000  Biso   1.000  O 
  O353     1.0000 0.11471  0.72605  0.64000  Biso   1.000  O 
  O354     1.0000 0.12281  0.70580  0.64000  Biso   1.000  O 
  O355     1.0000 0.13495  0.71390  0.64000  Biso   1.000  O 
  O356     1.0000 0.10256  0.71795  0.64000  Biso   1.000  O 
  O357     1.0000 0.12686  0.73414  0.64000  Biso   1.000  O 
  O358     1.0000 0.09447  0.73819  0.64000  Biso   1.000  O 
  O359     1.0000 0.10661  0.74629  0.64000  Biso   1.000  O 
  O360     1.0000 0.14710  0.72200  0.64000  Biso   1.000  O 
  O361     1.0000 0.07827  0.70175  0.64000  Biso   1.000  O 
  O362     1.0000 0.09042  0.70985  0.64000  Biso   1.000  O 
  O363     1.0000 0.13900  0.74224  0.64000  Biso   1.000  O 
  O364     1.0000 0.15115  0.75034  0.64000  Biso   1.000  O 
  O365     1.0000 0.08232  0.73009  0.64000  Biso   1.000  O 
  O366     1.0000 0.11876  0.75439  0.64000  Biso   1.000  O 
  O367     1.0000 0.13090  0.76248  0.64000  Biso   1.000  O 
  O368     1.0000 0.11066  0.69771  0.64000  Biso   1.000  O 
  O369     1.0000 0.11471  0.80297  0.64000  Biso   1.000  O 
  O370     1.0000 0.12281  0.78273  0.64000  Biso   1.000  O 
  O371     1.0000 0.13495  0.79082  0.64000  Biso   1.000  O 
  O372     1.0000 0.10256  0.79487  0.64000  Biso   1.000  O 
  O373     1.0000 0.12686  0.81107  0.64000  Biso   1.000  O 
  O374     1.0000 0.09447  0.81511  0.64000  Biso   1.000  O 
  O375     1.0000 0.10661  0.82321  0.64000  Biso   1.000  O 
  O376     1.0000 0.14710  0.79892  0.64000  Biso   1.000  O 
  O377     1.0000 0.07827  0.77868  0.64000  Biso   1.000  O 
  O378     1.0000 0.09042  0.78677  0.64000  Biso   1.000  O 
  O379     1.0000 0.13900  0.81916  0.64000  Biso   1.000  O 
  O380     1.0000 0.15115  0.82726  0.64000  Biso   1.000  O 
  O381     1.0000 0.08232  0.80702  0.64000  Biso   1.000  O 
  O382     1.0000 0.11876  0.83131  0.64000  Biso   1.000  O 
  O383     1.0000 0.13090  0.83941  0.64000  Biso   1.000  O 
  O384     1.0000 0.11066  0.77463  0.64000  Biso   1.000  O 
  O385     1.0000 0.11471  0.87989  0.64000  Biso   1.000  O 
  O386     1.0000 0.12281  0.85965  0.64000  Biso   1.000  O 
  O387     1.0000 0.13495  0.86775  0.64000  Biso   1.000  O 
  O388     1.0000 0.10256  0.87179  0.64000  Biso   1.000  O 
  O389     1.0000 0.12686  0.88799  0.64000  Biso   1.000  O 
  O390     1.0000 0.09447  0.89204  0.64000  Biso   1.000  O 
  O391     1.0000 0.10661  0.90013  0.64000  Biso   1.000  O 
  O392     1.0000 0.14710  0.87584  0.64000  Biso   1.000  O 
  O393     1.0000 0.07827  0.85560  0.64000  Biso   1.000  O 
  O394     1.0000 0.09042  0.86370  0.64000  Biso   1.000  O 
  O395     1.0000 0.13900  0.89609  0.64000  Biso   1.000  O 
  O396     1.0000 0.15115  0.90418  0.64000  Biso   1.000  O 
  O397     1.0000 0.08232  0.88394  0.64000  Biso   1.000  O 
  O398     1.0000 0.11876  0.90823  0.64000  Biso   1.000  O 
  O399     1.0000 0.13090  0.91633  0.64000  Biso   1.000  O 
  O400     1.0000 0.11066  0.85155  0.64000  Biso   1.000  O 
  O401     1.0000 0.11471  0.95682  0.64000  Biso   1.000  O 
  O402     1.0000 0.12281  0.93657  0.64000  Biso   1.000  O 
  O403     1.0000 0.13495  0.94467  0.64000  Biso   1.000  O 
  O404     1.0000 0.10256  0.94872  0.64000  Biso   1.000  O 
  O405     1.0000 0.12686  0.96491  0.64000  Biso   1.000  O 
  O406     1.0000 0.09447  0.96896  0.64000  Biso   1.000  O 
  O407     1.0000 0.10661  0.97706  0.64000  Biso   1.000  O 
  O408     1.0000 0.14710  0.95277  0.64000  Biso   1.000  O 
  O409     1.0000 0.07827  0.93252  0.64000  Biso   1.000  O 
  O410     1.0000 0.09042  0.94062  0.64000  Biso   1.000  O 
  O411     1.0000 0.13900  0.97301  0.64000  Biso   1.000  O 
  O412     1.0000 0.15115  0.98111  0.64000  Biso   1.000  O 
  O413     1.0000 0.08232  0.96086  0.64000  Biso   1.000  O 
  O414     1.0000 0.11876  0.98516  0.64000  Biso   1.000  O 
  O415     1.0000 0.13090  0.99325  0.64000  Biso   1.000  O 
  O416     1.0000 0.11066  0.92848  0.64000  Biso   1.000  O 
  O417     1.0000 0.19163  0.03374  0.64000  Biso   1.000  O 
  O418     1.0000 0.19973  0.01350  0.64000  Biso   1.000  O 
  O419     1.0000 0.21188  0.02159  0.64000  Biso   1.000  O 
  O420     1.0000 0.17949  0.02564  0.64000  Biso   1.000  O 
  O421     1.0000 0.20378  0.04184  0.64000  Biso   1.000  O 
  O422     1.0000 0.17139  0.04588  0.64000  Biso   1.000  O 
  O423     1.0000 0.18354  0.05398  0.64000  Biso   1.000  O 
  O424     1.0000 0.22402  0.02969  0.64000  Biso   1.000  O 
  O425     1.0000 0.15520  0.00945  0.64000  Biso   1.000  O 
  O426     1.0000 0.16734  0.01754  0.64000  Biso   1.000  O 
  O427     1.0000 0.21592  0.04993  0.64000  Biso   1.000  O 
  O428     1.0000 0.22807  0.05803  0.64000  Biso   1.000  O 
  O429     1.0000 0.15924  0.03779  0.64000  Biso   1.000  O 
  O430     1.0000 0.19568  0.06208  0.64000  Biso   1.000  O 
  O431     1.0000 0.20783  0.07018  0.64000  Biso   1.000  O 
  O432     1.0000 0.18758  0.00540  0.64000  Biso   1.000  O 
  O433     1.0000 0.19163  0.11066  0.64000  Biso   1.000  O 
  O434     1.0000 0.19973  0.09042  0.64000  Biso   1.000  O 
  O435     1.0000 0.21188  0.09852  0.64000  Biso   1.000  O 
  O436     1.0000 0.17949  0.10256  0.64000  Biso   1.000  O 
  O437     1.0000 0.20378  0.11876  0.64000  Biso   1.000  O 
  O438     1.0000 0.17139  0.12281  0.64000  Biso   1.000  O 
  O439     1.0000 0.18354  0.13090  0.64000  Biso   1.000  O 
  O440     1.0000 0.22402  0.10661  0.64000  Biso   1.000  O 
  O441     1.0000 0.15520  0.08637  0.64000  Biso   1.000  O 
  O442     1.0000 0.16734  0.09447  0.64000  Biso   1.000  O 
  O443     1.0000 0.21592  0.12686  0.64000  Biso   1.000  O 
  O444     1.0000 0.22807  0.13495  0.64000  Biso   1.000  O 
  O445     1.0000 0.15924  0.11471  0.64000  Biso   1.000  O 
  O446     1.0000 0.19568  0.13900  0.64000  Biso   1.000  O 
  O447     1.0000 0.20783  0.14710  0.64000  Biso   1.000  O 
  O448     1.0000 0.18758  0.08232  0.64000  Biso   1.000  O 
  O449     1.0000 0.19163  0.18758  0.64000  Biso   1.000  O 
  O450     1.0000 0.19973  0.16734  0.64000  Biso   1.000  O 
  O451     1.0000 0.21188  0.17544  0.64000  Biso   1.000  O 
  O452     1.0000 0.17949  0.17949  0.64000  Biso   1.000  O 
  O453     1.0000 0.20378  0.19568  0.64000  Biso   1.000  O 
  O454     1.0000 0.17139  0.19973  0.64000  Biso   1.000  O 
  O455     1.0000 0.18354  0.20783  0.64000  Biso   1.000  O 
  O456     1.0000 0.22402  0.18354  0.64000  Biso   1.000  O 
  O457     1.0000 0.15520  0.16329  0.64000  Biso   1.000  O 
  O458     1.0000 0.16734  0.17139  0.64000  Biso   1.000  O 
  O459     1.0000 0.21592  0.20378  0.64000  Biso   1.000  O 
  O460     1.0000 0.22807  0.21188  0.64000  Biso   1.000  O 
  O461     1.0000 0.15924  0.19163  0.64000  Biso   1.000  O 
  O462     1.0000 0.19568  0.21592  0.64000  Biso   1.000  O 
  O463     1.0000 0.20783  0.22402  0.64000  Biso   1.000  O 
  O464     1.0000 0.18758  0.15924  0.64000  Biso   1.000  O 
  O465     1.0000 0.19163  0.26451  0.64000  Biso   1.000  O 
  O466     1.0000 0.19973  0.24426  0.64000  Biso   1.000  O 
  O467     1.0000 0.21188  0.25236  0.64000  Biso   1.000  O 
  O468     1.0000 0.17949  0.25641  0.64000  Biso   1.000  O 
  O469     1.0000 0.20378  0.27260  0.64000  Biso   1.000  O 
  O470     1.0000 0.17139  0.27665  0.64000  Biso   1.000  O 
  O471     1.0000 0.18354  0.28475  0.64000  Biso   1.000  O 
  O472     1.0000 0.22402  0.26046  0.64000  Biso   1.000  O 
  O473     1.0000 0.15520  0.24022  0.64000  Biso   1.000  O 
  O474     1.0000 0.16734  0.24831  0.64000  Biso   1.000  O 
  O475     1.0000 0.21592  0.28070  0.64000  Biso   1.000  O 
  O476     1.0000 0.22807  0.28880  0.64000  Biso   1.000  O 
  O477     1.0000 0.15924  0.26856  0.64000  Biso   1.000  O 
  O478     1.0000 0.19568  0.29285  0.64000  Biso   1.000  O 
  O479     1.0000 0.20783  0.30094  0.64000  Biso   1.000  O 
  O480     1.0000 0.18758  0.23617  0.64000  Biso   1.000  O 
  O481     1.0000 0.19163  0.34143  0.64000  Biso   1.000  O 
  O482     1.0000 0.19973  0.32119  0.64000  Biso   1.000  O 
  O483     1.0000 0.21188  0.32928  0.64000  Biso   1.000  O 
  O484     1.0000 0.17949  0.33333  0.64000  Biso   1.000  O 
  O485     1.0000 0.20378  0.34953  0.64000  Biso   1.000  O 
  O486     1.0000 0.17139  0.35358  0.64000  Biso   1.000  O 
  O487     1.0000 0.18354  0.36167  0.64000  Biso   1.000  O 
  O488     1.0000 0.22402  0.33738  0.64000  Biso   1.000  O 
  O489     1.0000 0.15520  0.31714  0.64000  Biso   1.000  O 
  O490     1.0000 0.16734  0.32524  0.64000  Biso   1.000  O 
  O491     1.0000 0.21592  0.35762  0.64000  Biso   1.000  O 
  O492     1.0000 0.22807  0.36572  0.64000  Biso   1.000  O 
  O493     1.0000 0.15924  0.34548  0.64000  Biso   1.000  O 
  O494     1.0000 0.19568  0.36977  0.64000  Biso   1.000  O 
  O495     1.0000 0.20783  0.37787  0.64000  Biso   1.000  O 
  O496     1.0000 0.18758  0.31309  0.64000  Biso   1.000  O 
  O497     1.0000 0.19163  0.41835  0.64000  Biso   1.000  O 
  O498     1.0000 0.19973  0.39811  0.64000  Biso   1.000  O 
  O499     1.0000 0.21188  0.40621  0.64000  Biso   1.000  O 
  O500     1.0000 0.17949  0.41026  0.64000  Biso   1.000  O 
  O501     1.0000 0.20378  0.42645  0.64000  Biso   1.000  O 
  O502     1.0000 0.17139  0.43050  0.64000  Biso   1.000  O 
  O503     1.0000 0.18354  0.43860  0.64000  Biso   1.000  O 
  O504     1.0000 0.22402  0.41430  0.64000  Biso   1.000  O 
  O505     1.0000 0.15520  0.39406  0.64000  Biso   1.000  O 
  O506     1.0000 0.16734  0.40216  0.64000  Biso   1.000  O 
  O507     1.0000 0.21592  0.43455  0.64000  Biso   1.000  O 
  O508     1.0000 0.22807  0.44265  0.64000  Biso   1.000  O 
  O509     1.0000 0.15924  0.42240  0.64000  Biso   1.000  O 
  O510     1.0000 0.19568  0.44669  0.64000  Biso   1.000  O 
  O511     1.0000 0.20783  0.45479  0.64000  Biso   1.000  O 
  O512     1.0000 0.18758  0.39001  0.64000  Biso   1.000  O 
  O513     1.0000 0.19163  0.49528  0.64000  Biso   1.000  O 
  O514     1.0000 0.19973  0.47503  0.64000  Biso   1.000  O 
  O515     1.0000 0.21188  0.48313  0.64000  Biso   1.000  O 
  O516     1.0000 0.17949  0.48718  0.64000  Biso   1.000  O 
  O517     1.0000 0.20378  0.50337  0.64000  Biso   1.000  O 
  O518     1.0000 0.17139  0.50742  0.64000  Biso   1.000  O 
  O519     1.0000 0.18354  0.51552  0.64000  Biso   1.000  O 
  O520     1.0000 0.22402  0.49123  0.64000  Biso   1.000  O 
  O521     1.0000 0.15520  0.47099  0.64000  Biso   1.000  O 
  O522     1.0000 0.16734  0.47908  0.64000  Biso   1.000  O 
  O523     1.0000 0.21592  0.51147  0.64000  Biso   1.000  O 
  O524     1.0000 0.22807  0.51957  0.64000  Biso   1.000  O 
  O525     1.0000 0.15924  0.49933  0.64000  Biso   1.000  O 
  O526     1.0000 0.19568  0.52362  0.64000  Biso   1.000  O 
  O527     1.0000 0.20783  0.53171  0.64000  Biso   1.000  O 
  O528     1.0000 0.18758  0.46694  0.64000  Biso   1.000  O 
  O529     1.0000 0.19163  0.57220  0.64000  Biso   1.000  O 
  O530     1.0000 0.19973  0.55196  0.64000  Biso   1.000  O 
  O531     1.0000 0.21188  0.56005  0.64000  Biso   1.000  O 
  O532     1.0000 0.17949  0.56410  0.64000  Biso   1.000  O 
  O533     1.0000 0.20378  0.58030  0.64000  Biso   1.000  O 
  O534     1.0000 0.17139  0.58435  0.64000  Biso   1.000  O 
  O535     1.0000 0.18354  0.59244  0.64000  Biso   1.000  O 
  O536     1.0000 0.22402  0.56815  0.64000  Biso   1.000  O 
  O537     1.0000 0.15520  0.54791  0.64000  Biso   1.000  O 
  O538     1.0000 0.16734  0.55601  0.64000  Biso   1.000  O 
  O539     1.0000 0.21592  0.58839  0.64000  Biso   1.000  O 
  O540     1.0000 0.22807  0.59649  0.64000  Biso   1.000  O 
  O541     1.0000 0.15924  0.57625  0.64000  Biso   1.000  O 
  O542     1.0000 0.19568  0.60054  0.64000  Biso   1.000  O 
  O543     1.0000 0.20783  0.60864  0.64000  Biso   1.000  O 
  O544     1.0000 0.18758  0.54386  0.64000  Biso   1.000  O 
  O545     1.0000 0.19163  0.64912  0.64000  Biso   1.000  O 
  O546     1.0000 0.19973  0.62888  0.64000  Biso   1.000  O 
  O547     1.0000 0.21188  0.63698  0.64000  Biso   1.000  O 
  O548     1.0000 0.17949  0.64103  0.64000  Biso   1.000  O 
  O549     1.0000 0.20378  0.65722  0.64000  Biso   1.000  O 
  O550     1.0000 0.17139  0.66127  0.64000  Biso   1.000  O 
  O551     1.0000 0.18354  0.66937  0.64000  Biso   1.000  O 
  O552     1.0000 0.22402  0.64507  0.64000  Biso   1.000  O 
  O553     1.0000 0.15520  0.62483  0.64000  Biso   1.000  O 
  O554     1.0000 0.16734  0.63293  0.64000  Biso   1.000  O 
  O555     1.0000 0.21592  0.66532  0.64000  Biso   1.000  O 
  O556     1.0000 0.22807  0.67341  0.64000  Biso   1.000  O 
  O557     1.0000 0.15924  0.65317  0.64000  Biso   1.000  O 
  O558     1.0000 0.19568  0.67746  0.64000  Biso   1.000  O 
  O559     1.0000 0.20783  0.68556  0.64000  Biso   1.000  O 
  O560     1.0000 0.18758  0.62078  0.64000  Biso   1.000  O 
  O561     1.0000 0.19163  0.72605  0.64000  Biso   1.000  O 
  O562     1.0000 0.19973  0.70580  0.64000  Biso   1.000  O 
  O563     1.0000 0.21188  0.71390  0.64000  Biso   1.000  O 
  O564     1.0000 0.17949  0.71795  0.64000  Biso   1.000  O 
  O565     1.0000 0.20378  0.73414  0.64000  Biso   1.000  O 
  O566     1.0000 0.17139  0.73819  0.64000  Biso   1.000  O 
  O567     1.0000 0.18354  0.74629  0.64000  Biso   1.000  O 
  O568     1.0000 0.22402  0.72200  0.64000  Biso   1.000  O 
  O569     1.0000 0.15520  0.70175  0.64000  Biso   1.000  O 
  O570     1.0000 0.16734  0.70985  0.64000  Biso   1.000  O 
  O571     1.0000 0.21592  0.74224  0.64000  Biso   1.000  O 
  O572     1.0000 0.22807  0.75034  0.64000  Biso   1.000  O 
  O573     1.0000 0.15924  0.73009  0.64000  Biso   1.000  O 
  O574     1.0000 0.19568  0.75439  0.64000  Biso   1.000  O 
  O575     1.0000 0.20783  0.76248  0.64000  Biso   1.000  O 
  O576     1.0000 0.18758  0.69771  0.64000  Biso   1.000  O 
  O577     1.0000 0.19163  0.80297  0.64000  Biso   1.000  O 
  O578     1.0000 0.19973  0.78273  0.64000  Biso   1.000  O 
  O579     1.0000 0.21188  0.79082  0.64000  Biso   1.000  O 
  O580     1.0000 0.17949  0.79487  0.64000  Biso   1.000  O 
  O581     1.0000 0.20378  0.81107  0.64000  Biso   1.000  O 
  O582     1.0000 0.17139  0.81511  0.64000  Biso   1.000  O 
  O583     1.0000 0.18354  0.82321  0.64000  Biso   1.000  O 
  O584     1.0000 0.22402  0.79892  0.64000  Biso   1.000  O 
  O585     1.0000 0.15520  0.77868  0.64000  Biso   1.000  O 
  O586     1.0000 0.16734  0.78677  0.64000  Biso   1.000  O 
  O587     1.0000 0.21592  0.81916  0.64000  Biso   1.000  O 
  O588     1.0000 0.22807  0.82726  0.64000  Biso   1.000  O 
  O589     1.0000 0.15924  0.80702  0.64000  Biso   1.000  O 
  O590     1.0000 0.19568  0.83131  0.64000  Biso   1.000  O 
  O591     1.0000 0.20783  0.83941  0.64000  Biso   1.000  O 
  O592     1.0000 0.18758  0.77463  0.64000  Biso   1.000  O 
  O593     1.0000 0.19163  0.87989  0.64000  Biso   1.000  O 
  O594     1.0000 0.19973  0.85965  0.64000  Biso   1.000  O 
  O595     1.0000 0.21188  0.86775  0.64000  Biso   1.000  O 
  O596     1.0000 0.17949  0.87179  0.64000  Biso   1.000  O 
  O597     1.0000 0.20378  0.88799  0.64000  Biso   1.000  O 
  O598     1.0000 0.17139  0.89204  0.64000  Biso   1.000  O 
  O599     1.0000 0.18354  0.90013  0.64000  Biso   1.000  O 
  O600     1.0000 0.22402  0.87584  0.64000  Biso   1.000  O 
  O601     1.0000 0.15520  0.85560  0.64000  Biso   1.000  O 
  O602     1.0000 0.16734  0.86370  0.64000  Biso   1.000  O 
  O603     1.0000 0.21592  0.89609  0.64000  Biso   1.000  O 
  O604     1.0000 0.22807  0.90418  0.64000  Biso   1.000  O 
  O605     1.0000 0.15924  0.88394  0.64000  Biso   1.000  O 
  O606     1.0000 0.19568  0.90823  0.64000  Biso   1.000  O 
  O607     1.0000 0.20783  0.91633  0.64000  Biso   1.000  O 
  O608     1.0000 0.18758  0.85155  0.64000  Biso   1.000  O 
  O609     1.0000 0.19163  0.95682  0.64000  Biso   1.000  O 
  O610     1.0000 0.19973  0.93657  0.64000  Biso   1.000  O 
  O611     1.0000 0.21188  0.94467  0.64000  Biso   1.000  O 
  O612     1.0000 0.17949  0.94872  0.64000  Biso   1.000  O 
  O613     1.0000 0.20378  0.96491  0.64000  Biso   1.000  O 
  O614     1.0000 0.17139  0.96896  0.64000  Biso   1.000  O 
  O615     1.0000 0.18354  0.97706  0.64000  Biso   1.000  O 
  O616     1.0000 0.22402  0.95277  0.64000  Biso   1.000  O 
  O617     1.0000 0.15520  0.93252  0.64000  Biso   1.000  O 
  O618     1.0000 0.16734  0.94062  0.64000  Biso   1.000  O 
  O619     1.0000 0.21592  0.97301  0.64000  Biso   1.000  O 
  O620     1.0000 0.22807  0.98111  0.64000  Biso   1.000  O 
  O621     1.0000 0.15924  0.96086  0.64000  Biso   1.000  O 
  O622     1.0000 0.19568  0.98516  0.64000  Biso   1.000  O 
  O623     1.0000 0.20783  0.99325  0.64000  Biso   1.000  O 
  O624     1.0000 0.18758  0.92848  0.64000  Biso   1.000  O 
  O625     1.0000 0.26856  0.03374  0.64000  Biso   1.000  O 
  O626     1.0000 0.27665  0.01350  0.64000  Biso   1.000  O 
  O627     1.0000 0.28880  0.02159  0.64000  Biso   1.000  O 
  O628     1.0000 0.25641  0.02564  0.64000  Biso   1.000  O 
  O629     1.0000 0.28070  0.04184  0.64000  Biso   1.000  O 
  O630     1.0000 0.24831  0.04588  0.64000  Biso   1.000  O 
  O631     1.0000 0.26046  0.05398  0.64000  Biso   1.000  O 
  O632     1.0000 0.30094  0.02969  0.64000  Biso   1.000  O 
  O633     1.0000 0.23212  0.00945  0.64000  Biso   1.000  O 
  O634     1.0000 0.24426  0.01754  0.64000  Biso   1.000  O 
  O635     1.0000 0.29285  0.04993  0.64000  Biso   1.000  O 
  O636     1.0000 0.30499  0.05803  0.64000  Biso   1.000  O 
  O637     1.0000 0.23617  0.03779  0.64000  Biso   1.000  O 
  O638     1.0000 0.27260  0.06208  0.64000  Biso   1.000  O 
  O639     1.0000 0.28475  0.07018  0.64000  Biso   1.000  O 
  O640     1.0000 0.26451  0.00540  0.64000  Biso   1.000  O 
  O641     1.0000 0.26856  0.11066  0.64000  Biso   1.000  O 
  O642     1.0000 0.27665  0.09042  0.64000  Biso   1.000  O 
  O643     1.0000 0.28880  0.09852  0.64000  Biso   1.000  O 
  O644     1.0000 0.25641  0.10256  0.64000  Biso   1.000  O 
  O645     1.0000 0.28070  0.11876  0.64000  Biso   1.000  O 
  O646     1.0000 0.24831  0.12281  0.64000  Biso   1.000  O 
  O647     1.0000 0.26046  0.13090  0.64000  Biso   1.000  O 
  O648     1.0000 0.30094  0.10661  0.64000  Biso   1.000  O 
  O649     1.0000 0.23212  0.08637  0.64000  Biso   1.000  O 
  O650     1.0000 0.24426  0.09447  0.64000  Biso   1.000  O 
  O651     1.0000 0.29285  0.12686  0.64000  Biso   1.000  O 
  O652     1.0000 0.30499  0.13495  0.64000  Biso   1.000  O 
  O653     1.0000 0.23617  0.11471  0.64000  Biso   1.000  O 
  O654     1.0000 0.27260  0.13900  0.64000  Biso   1.000  O 
  O655     1.0000 0.28475  0.14710  0.64000  Biso   1.000  O 
  O656     1.0000 0.26451  0.08232  0.64000  Biso   1.000  O 
  O657     1.0000 0.26856  0.18758  0.64000  Biso   1.000  O 
  O658     1.0000 0.27665  0.16734  0.64000  Biso   1.000  O 
  O659     1.0000 0.28880  0.17544  0.64000  Biso   1.000  O 
  O660     1.0000 0.25641  0.17949  0.64000  Biso   1.000  O 
  O661     1.0000 0.28070  0.19568  0.64000  Biso   1.000  O 
  O662     1.0000 0.24831  0.19973  0.64000  Biso   1.000  O 
  O663     1.0000 0.26046  0.20783  0.64000  Biso   1.000  O 
  O664     1.0000 0.30094  0.18354  0.64000  Biso   1.000  O 
  O665     1.0000 0.23212  0.16329  0.64000  Biso   1.000  O 
  O666     1.0000 0.24426  0.17139  0.64000  Biso   1.000  O 
  O667     1.0000 0.29285  0.20378  0.64000  Biso   1.000  O 
  O668     1.0000 0.30499  0.21188  0.64000  Biso   1.000  O 
  O669     1.0000 0.23617  0.19163  0.64000  Biso   1.000  O 
  O670     1.0000 0.27260  0.21592  0.64000  Biso   1.000  O 
  O671     1.0000 0.28475  0.22402  0.64000  Biso   1.000  O 
  O672     1.0000 0.26451  0.15924  0.64000  Biso   1.000  O 
  O673     1.0000 0.26856  0.26451  0.64000  Biso   1.000  O 
  O674     1.0000 0.27665  0.24426  0.64000  Biso   1.000  O 
  O675     1.0000 0.28880  0.25236  0.64000  Biso   1.000  O 
  O676     1.0000 0.25641  0.25641  0.64000  Biso   1.000  O 
  O677     1.0000 0.28070  0.27260  0.64000  Biso   1.000  O 
  O678     1.0000 0.24831  0.27665  0.64000  Biso   1.000  O 
  O679     1.0000 0.26046  0.28475  0.64000  Biso   1.000  O 
  O680     1.0000 0.30094  0.26046  0.64000  Biso   1.000  O 
  O681     1.0000 0.23212  0.24022  0.64000  Biso   1.000  O 
  O682     1.0000 0.24426  0.24831  0.64000  Biso   1.000  O 
  O683     1.0000 0.29285  0.28070  0.64000  Biso   1.000  O 
  O684     1.0000 0.30499  0.28880  0.64000  Biso   1.000  O 
  O685     1.0000 0.23617  0.26856  0.64000  Biso   1.000  O 
  O686     1.0000 0.27260  0.29285  0.64000  Biso   1.000  O 
  O687     1.0000 0.28475  0.30094  0.64000  Biso   1.000  O 
  O688     1.0000 0.26451  0.23617  0.64000  Biso   1.000  O 
  O689     1.0000 0.26856  0.34143  0.64000  Biso   1.000  O 
  O690     1.0000 0.27665  0.32119  0.64000  Biso   1.000  O 
  O691     1.0000 0.28880  0.32928  0.64000  Biso   1.000  O 
  O692     1.0000 0.25641  0.33333  0.64000  Biso   1.000  O 
  O693     1.0000 0.28070  0.34953  0.64000  Biso   1.000  O 
  O694     1.0000 0.24831  0.35358  0.64000  Biso   1.000  O 
  O695     1.0000 0.26046  0.36167  0.64000  Biso   1.000  O 
  O696     1.0000 0.30094  0.33738  0.64000  Biso   1.000  O 
  O697     1.0000 0.23212  0.31714  0.64000  Biso   1.000  O 
  O698     1.0000 0.24426  0.32524  0.64000  Biso   1.000  O 
  O699     1.0000 0.29285  0.35762  0.64000  Biso   1.000  O 
  O700     1.0000 0.30499  0.36572  0.64000  Biso   1.000  O 
  O701     1.0000 0.23617  0.34548  0.64000  Biso   1.000  O 
  O702     1.0000 0.27260  0.36977  0.64000  Biso   1.000  O 
  O703     1.0000 0.28475  0.37787  0.64000  Biso   1.000  O 
  O704     1.0000 0.26451  0.31309  0.64000  Biso   1.000  O 
  O705     1.0000 0.26856  0.41835  0.64000  Biso   1.000  O 
  O706     1.0000 0.27665  0.39811  0.64000  Biso   1.000  O 
  O707     1.0000 0.28880  0.40621  0.64000  Biso   1.000  O 
  O708     1.0000 0.25641  0.41026  0.64000  Biso   1.000  O 
  O709     1.0000 0.28070  0.42645  0.64000  Biso   1.000  O 
  O710     1.0000 0.24831  0.43050  0.64000  Biso   1.000  O 
  O711     1.0000 0.26046  0.43860  0.64000  Biso   1.000  O 
  O712     1.0000 0.30094  0.41430  0.64000  Biso   1.000  O 
  O713     1.0000 0.23212  0.39406  0.64000  Biso   1.000  O 
  O714     1.0000 0.24426  0.40216  0.64000  Biso   1.000  O 
  O715     1.0000 0.29285  0.43455  0.64000  Biso   1.000  O 
  O716     1.0000 0.30499  0.44265  0.64000  Biso   1.000  O 
  O717     1.0000 0.23617  0.42240  0.64000  Biso   1.000  O 
  O718     1.0000 0.27260  0.44669  0.64000  Biso   1.000  O 
  O719     1.0000 0.28475  0.45479  0.64000  Biso   1.000  O 
  O720     1.0000 0.26451  0.39001  0.64000  Biso   1.000  O 
  O721     1.0000 0.26856  0.49528  0.64000  Biso   1.000  O 
  O722     1.0000 0.27665  0.47503  0.64000  Biso   1.000  O 
  O723     1.0000 0.28880  0.48313  0.64000  Biso   1.000  O 
  O724     1.0000 0.25641  0.48718  0.64000  Biso   1.000  O 
  O725     1.0000 0.28070  0.50337  0.64000  Biso   1.000  O 
  O726     1.0000 0.24831  0.50742  0.64000  Biso   1.000  O 
  O727     1.0000 0.26046  0.51552  0.64000  Biso   1.000  O 
  O728     1.0000 0.30094  0.49123  0.64000  Biso   1.000  O 
  O729     1.0000 0.23212  0.47099  0.64000  Biso   1.000  O 
  O730     1.0000 0.24426  0.47908  0.64000  Biso   1.000  O 
  O731     1.0000 0.29285  0.51147  0.64000  Biso   1.000  O 
  O732     1.0000 0.30499  0.51957  0.64000  Biso   1.000  O 
  O733     1.0000 0.23617  0.49933  0.64000  Biso   1.000  O 
  O734     1.0000 0.27260  0.52362  0.64000  Biso   1.000  O 
  O735     1.0000 0.28475  0.53171  0.64000  Biso   1.000  O 
  O736     1.0000 0.26451  0.46694  0.64000  Biso   1.000  O 
  O737     1.0000 0.26856  0.57220  0.64000  Biso   1.000  O 
  O738     1.0000 0.27665  0.55196  0.64000  Biso   1.000  O 
  O739     1.0000 0.28880  0.56005  0.64000  Biso   1.000  O 
  O740     1.0000 0.25641  0.56410  0.64000  Biso   1.000  O 
  O741     1.0000 0.28070  0.58030  0.64000  Biso   1.000  O 
  O742     1.0000 0.24831  0.58435  0.64000  Biso   1.000  O 
  O743     1.0000 0.26046  0.59244  0.64000  Biso   1.000  O 
  O744     1.0000 0.30094  0.56815  0.64000  Biso   1.000  O 
  O745     1.0000 0.23212  0.54791  0.64000  Biso   1.000  O 
  O746     1.0000 0.24426  0.55601  0.64000  Biso   1.000  O 
  O747     1.0000 0.29285  0.58839  0.64000  Biso   1.000  O 
  O748     1.0000 0.30499  0.59649  0.64000  Biso   1.000  O 
  O749     1.0000 0.23617  0.57625  0.64000  Biso   1.000  O 
  O750     1.0000 0.27260  0.60054  0.64000  Biso   1.000  O 
  O751     1.0000 0.28475  0.60864  0.64000  Biso   1.000  O 
  O752     1.0000 0.26451  0.54386  0.64000  Biso   1.000  O 
  O753     1.0000 0.26856  0.64912  0.64000  Biso   1.000  O 
  O754     1.0000 0.27665  0.62888  0.64000  Biso   1.000  O 
  O755     1.0000 0.28880  0.63698  0.64000  Biso   1.000  O 
  O756     1.0000 0.25641  0.64103  0.64000  Biso   1.000  O 
  O757     1.0000 0.28070  0.65722  0.64000  Biso   1.000  O 
  O758     1.0000 0.24831  0.66127  0.64000  Biso   1.000  O 
  O759     1.0000 0.26046  0.66937  0.64000  Biso   1.000  O 
  O760     1.0000 0.30094  0.64507  0.64000  Biso   1.000  O 
  O761     1.0000 0.23212  0.62483  0.64000  Biso   1.000  O 
  O762     1.0000 0.24426  0.63293  0.64000  Biso   1.000  O 
  O763     1.0000 0.29285  0.66532  0.64000  Biso   1.000  O 
  O764     1.0000 0.30499  0.67341  0.64000  Biso   1.000  O 
  O765     1.0000 0.23617  0.65317  0.64000  Biso   1.000  O 
  O766     1.0000 0.27260  0.67746  0.64000  Biso   1.000  O 
  O767     1.0000 0.28475  0.68556  0.64000  Biso   1.000  O 
  O768     1.0000 0.26451  0.62078  0.64000  Biso   1.000  O 
  O769     1.0000 0.26856  0.72605  0.64000  Biso   1.000  O 
  O770     1.0000 0.27665  0.70580  0.64000  Biso   1.000  O 
  O771     1.0000 0.28880  0.71390  0.64000  Biso   1.000  O 
  O772     1.0000 0.25641  0.71795  0.64000  Biso   1.000  O 
  O773     1.0000 0.28070  0.73414  0.64000  Biso   1.000  O 
  O774     1.0000 0.24831  0.73819  0.64000  Biso   1.000  O 
  O775     1.0000 0.26046  0.74629  0.64000  Biso   1.000  O 
  O776     1.0000 0.30094  0.72200  0.64000  Biso   1.000  O 
  O777     1.0000 0.23212  0.70175  0.64000  Biso   1.000  O 
  O778     1.0000 0.24426  0.70985  0.64000  Biso   1.000  O 
  O779     1.0000 0.29285  0.74224  0.64000  Biso   1.000  O 
  O780     1.0000 0.30499  0.75034  0.64000  Biso   1.000  O 
  O781     1.0000 0.23617  0.73009  0.64000  Biso   1.000  O 
  O782     1.0000 0.27260  0.75439  0.64000  Biso   1.000  O 
  O783     1.0000 0.28475  0.76248  0.64000  Biso   1.000  O 
  O784     1.0000 0.26451  0.69771  0.64000  Biso   1.000  O 
  O785     1.0000 0.26856  0.80297  0.64000  Biso   1.000  O 
  O786     1.0000 0.27665  0.78273  0.64000  Biso   1.000  O 
  O787     1.0000 0.28880  0.79082  0.64000  Biso   1.000  O 
  O788     1.0000 0.25641  0.79487  0.64000  Biso   1.000  O 
  O789     1.0000 0.28070  0.81107  0.64000  Biso   1.000  O 
  O790     1.0000 0.24831  0.81511  0.64000  Biso   1.000  O 
  O791     1.0000 0.26046  0.82321  0.64000  Biso   1.000  O 
  O792     1.0000 0.30094  0.79892  0.64000  Biso   1.000  O 
  O793     1.0000 0.23212  0.77868  0.64000  Biso   1.000  O 
  O794     1.0000 0.24426  0.78677  0.64000  Biso   1.000  O 
  O795     1.0000 0.29285  0.81916  0.64000  Biso   1.000  O 
  O796     1.0000 0.30499  0.82726  0.64000  Biso   1.000  O 
  O797     1.0000 0.23617  0.80702  0.64000  Biso   1.000  O 
  O798     1.0000 0.27260  0.83131  0.64000  Biso   1.000  O 
  O799     1.0000 0.28475  0.83941  0.64000  Biso   1.000  O 
  O800     1.0000 0.26451  0.77463  0.64000  Biso   1.000  O 
  O801     1.0000 0.26856  0.87989  0.64000  Biso   1.000  O 
  O802     1.0000 0.27665  0.85965  0.64000  Biso   1.000  O 
  O803     1.0000 0.28880  0.86775  0.64000  Biso   1.000  O 
  O804     1.0000 0.25641  0.87179  0.64000  Biso   1.000  O 
  O805     1.0000 0.28070  0.88799  0.64000  Biso   1.000  O 
  O806     1.0000 0.24831  0.89204  0.64000  Biso   1.000  O 
  O807     1.0000 0.26046  0.90013  0.64000  Biso   1.000  O 
  O808     1.0000 0.30094  0.87584  0.64000  Biso   1.000  O 
  O809     1.0000 0.23212  0.85560  0.64000  Biso   1.000  O 
  O810     1.0000 0.24426  0.86370  0.64000  Biso   1.000  O 
  O811     1.0000 0.29285  0.89609  0.64000  Biso   1.000  O 
  O812     1.0000 0.30499  0.90418  0.64000  Biso   1.000  O 
  O813     1.0000 0.23617  0.88394  0.64000  Biso   1.000  O 
  O814     1.0000 0.27260  0.90823  0.64000  Biso   1.000  O 
  O815     1.0000 0.28475  0.91633  0.64000  Biso   1.000  O 
  O816     1.0000 0.26451  0.85155  0.64000  Biso   1.000  O 
  O817     1.0000 0.26856  0.95682  0.64000  Biso   1.000  O 
  O818     1.0000 0.27665  0.93657  0.64000  Biso   1.000  O 
  O819     1.0000 0.28880  0.94467  0.64000  Biso   1.000  O 
  O820     1.0000 0.25641  0.94872  0.64000  Biso   1.000  O 
  O821     1.0000 0.28070  0.96491  0.64000  Biso   1.000  O 
  O822     1.0000 0.24831  0.96896  0.64000  Biso   1.000  O 
  O823     1.0000 0.26046  0.97706  0.64000  Biso   1.000  O 
  O824     1.0000 0.30094  0.95277  0.64000  Biso   1.000  O 
  O825     1.0000 0.23212  0.93252  0.64000  Biso   1.000  O 
  O826     1.0000 0.24426  0.94062  0.64000  Biso   1.000  O 
  O827     1.0000 0.29285  0.97301  0.64000  Biso   1.000  O 
  O828     1.0000 0.30499  0.98111  0.64000  Biso   1.000  O 
  O829     1.0000 0.23617  0.96086  0.64000  Biso   1.000  O 
  O830     1.0000 0.27260  0.98516  0.64000  Biso   1.000  O 
  O831     1.0000 0.28475  0.99325  0.64000  Biso   1.000  O 
  O832     1.0000 0.26451  0.92848  0.64000  Biso   1.000  O 
  O833     1.0000 0.34548  0.03374  0.64000  Biso   1.000  O 
  O834     1.0000 0.35358  0.01350  0.64000  Biso   1.000  O 
  O835     1.0000 0.36572  0.02159  0.64000  Biso   1.000  O 
  O836     1.0000 0.33333  0.02564  0.64000  Biso   1.000  O 
  O837     1.0000 0.35762  0.04184  0.64000  Biso   1.000  O 
  O838     1.0000 0.32524  0.04588  0.64000  Biso   1.000  O 
  O839     1.0000 0.33738  0.05398  0.64000  Biso   1.000  O 
  O840     1.0000 0.37787  0.02969  0.64000  Biso   1.000  O 
  O841     1.0000 0.30904  0.00945  0.64000  Biso   1.000  O 
  O842     1.0000 0.32119  0.01754  0.64000  Biso   1.000  O 
  O843     1.0000 0.36977  0.04993  0.64000  Biso   1.000  O 
  O844     1.0000 0.38192  0.05803  0.64000  Biso   1.000  O 
  O845     1.0000 0.31309  0.03779  0.64000  Biso   1.000  O 
  O846     1.0000 0.34953  0.06208  0.64000  Biso   1.000  O 
  O847     1.0000 0.36167  0.07018  0.64000  Biso   1.000  O 
  O848     1.0000 0.34143  0.00540  0.64000  Biso   1.000  O 
  O849     1.0000 0.34548  0.11066  0.64000  Biso   1.000  O 
  O850     1.0000 0.35358  0.09042  0.64000  Biso   1.000  O 
  O851     1.0000 0.36572  0.09852  0.64000  Biso   1.000  O 
  O852     1.0000 0.33333  0.10256  0.64000  Biso   1.000  O 
  O853     1.0000 0.35762  0.11876  0.64000  Biso   1.000  O 
  O854     1.0000 0.32524  0.12281  0.64000  Biso   1.000  O 
  O855     1.0000 0.33738  0.13090  0.64000  Biso   1.000  O 
  O856     1.0000 0.37787  0.10661  0.64000  Biso   1.000  O 
  O857     1.0000 0.30904  0.08637  0.64000  Biso   1.000  O 
  O858     1.0000 0.32119  0.09447  0.64000  Biso   1.000  O 
  O859     1.0000 0.36977  0.12686  0.64000  Biso   1.000  O 
  O860     1.0000 0.38192  0.13495  0.64000  Biso   1.000  O 
  O861     1.0000 0.31309  0.11471  0.64000  Biso   1.000  O 
  O862     1.0000 0.34953  0.13900  0.64000  Biso   1.000  O 
  O863     1.0000 0.36167  0.14710  0.64000  Biso   1.000  O 
  O864     1.0000 0.34143  0.08232  0.64000  Biso   1.000  O 
  O865     1.0000 0.34548  0.18758  0.64000  Biso   1.000  O 
  O866     1.0000 0.35358  0.16734  0.64000  Biso   1.000  O 
  O867     1.0000 0.36572  0.17544  0.64000  Biso   1.000  O 
  O868     1.0000 0.33333  0.17949  0.64000  Biso   1.000  O 
  O869     1.0000 0.35762  0.19568  0.64000  Biso   1.000  O 
  O870     1.0000 0.32524  0.19973  0.64000  Biso   1.000  O 
  O871     1.0000 0.33738  0.20783  0.64000  Biso   1.000  O 
  O872     1.0000 0.37787  0.18354  0.64000  Biso   1.000  O 
  O873     1.0000 0.30904  0.16329  0.64000  Biso   1.000  O 
  O874     1.0000 0.32119  0.17139  0.64000  Biso   1.000  O 
  O875     1.0000 0.36977  0.20378  0.64000  Biso   1.000  O 
  O876     1.0000 0.38192  0.21188  0.64000  Biso   1.000  O 
  O877     1.0000 0.31309  0.19163  0.64000  Biso   1.000  O 
  O878     1.0000 0.34953  0.21592  0.64000  Biso   1.000  O 
  O879     1.0000 0.36167  0.22402  0.64000  Biso   1.000  O 
  O880     1.0000 0.34143  0.15924  0.64000  Biso   1.000  O 
  O881     1.0000 0.34548  0.26451  0.64000  Biso   1.000  O 
  O882     1.0000 0.35358  0.24426  0.64000  Biso   1.000  O 
  O883     1.0000 0.36572  0.25236  0.64000  Biso   1.000  O 
  O884     1.0000 0.33333  0.25641  0.64000  Biso   1.000  O 
  O885     1.0000 0.35762  0.27260  0.64000  Biso   1.000  O 
  O886     1.0000 0.32524  0.27665  0.64000  Biso   1.000  O 
  O887     1.0000 0.33738  0.28475  0.64000  Biso   1.000  O 
  O888     1.0000 0.37787  0.26046  0.64000  Biso   1.000  O 
  O889     1.0000 0.30904  0.24022  0.64000  Biso   1.000  O 
  O890     1.0000 0.32119  0.24831  0.64000  Biso   1.000  O 
  O891     1.0000 0.36977  0.28070  0.64000  Biso   1.000  O 
  O892     1.0000 0.38192  0.28880  0.64000  Biso   1.000  O 
  O893     1.0000 0.31309  0.26856  0.64000  Biso   1.000  O 
  O894     1.0000 0.34953  0.29285  0.64000  Biso   1.000  O 
  O895     1.0000 0.36167  0.30094  0.64000  Biso   1.000  O 
  O896     1.0000 0.34143  0.23617  0.64000  Biso   1.000  O 
  O897     1.0000 0.34548  0.34143  0.64000  Biso   1.000  O 
  O898     1.0000 0.35358  0.32119  0.64000  Biso   1.000  O 
  O899     1.0000 0.36572  0.32928  0.64000  Biso   1.000  O 
  O900     1.0000 0.33333  0.33333  0.64000  Biso   1.000  O 
  O901     1.0000 0.35762  0.34953  0.64000  Biso   1.000  O 
  O902     1.0000 0.32524  0.35358  0.64000  Biso   1.000  O 
  O903     1.0000 0.33738  0.36167  0.64000  Biso   1.000  O 
  O904     1.0000 0.37787  0.33738  0.64000  Biso   1.000  O 
  O905     1.0000 0.30904  0.31714  0.64000  Biso   1.000  O 
  O906     1.0000 0.32119  0.32524  0.64000  Biso   1.000  O 
  O907     1.0000 0.36977  0.35762  0.64000  Biso   1.000  O 
  O908     1.0000 0.38192  0.36572  0.64000  Biso   1.000  O 
  O909     1.0000 0.31309  0.34548  0.64000  Biso   1.000  O 
  O910     1.0000 0.34953  0.36977  0.64000  Biso   1.000  O 
  O911     1.0000 0.36167  0.37787  0.64000  Biso   1.000  O 
  O912     1.0000 0.34143  0.31309  0.64000  Biso   1.000  O 
  O913     1.0000 0.34548  0.41835  0.64000  Biso   1.000  O 
  O914     1.0000 0.35358  0.39811  0.64000  Biso   1.000  O 
  O915     1.0000 0.36572  0.40621  0.64000  Biso   1.000  O 
  O916     1.0000 0.33333  0.41026  0.64000  Biso   1.000  O 
  O917     1.0000 0.35762  0.42645  0.64000  Biso   1.000  O 
  O918     1.0000 0.32524  0.43050  0.64000  Biso   1.000  O 
  O919     1.0000 0.33738  0.43860  0.64000  Biso   1.000  O 
  O920     1.0000 0.37787  0.41430  0.64000  Biso   1.000  O 
  O921     1.0000 0.30904  0.39406  0.64000  Biso   1.000  O 
  O922     1.0000 0.32119  0.40216  0.64000  Biso   1.000  O 
  O923     1.0000 0.36977  0.43455  0.64000  Biso   1.000  O 
  O924     1.0000 0.38192  0.44265  0.64000  Biso   1.000  O 
  O925     1.0000 0.31309  0.42240  0.64000  Biso   1.000  O 
  O926     1.0000 0.34953  0.44669  0.64000  Biso   1.000  O 
  O927     1.0000 0.36167  0.45479  0.64000  Biso   1.000  O 
  O928     1.0000 0.34143  0.39001  0.64000  Biso   1.000  O 
  O929     1.0000 0.34548  0.49528  0.64000  Biso   1.000  O 
  O930     1.0000 0.35358  0.47503  0.64000  Biso   1.000  O 
  O931     1.0000 0.36572  0.48313  0.64000  Biso   1.000  O 
  O932     1.0000 0.33333  0.48718  0.64000  Biso   1.000  O 
  O933     1.0000 0.35762  0.50337  0.64000  Biso   1.000  O 
  O934     1.0000 0.32524  0.50742  0.64000  Biso   1.000  O 
  O935     1.0000 0.33738  0.51552  0.64000  Biso   1.000  O 
  O936     1.0000 0.37787  0.49123  0.64000  Biso   1.000  O 
  O937     1.0000 0.30904  0.47099  0.64000  Biso   1.000  O 
  O938     1.0000 0.32119  0.47908  0.64000  Biso   1.000  O 
  O939     1.0000 0.36977  0.51147  0.64000  Biso   1.000  O 
  O940     1.0000 0.38192  0.51957  0.64000  Biso   1.000  O 
  O941     1.0000 0.31309  0.49933  0.64000  Biso   1.000  O 
  O942     1.0000 0.34953  0.52362  0.64000  Biso   1.000  O 
  O943     1.0000 0.36167  0.53171  0.64000  Biso   1.000  O 
  O944     1.0000 0.34143  0.46694  0.64000  Biso   1.000  O 
  O945     1.0000 0.34548  0.57220  0.64000  Biso   1.000  O 
  O946     1.0000 0.35358  0.55196  0.64000  Biso   1.000  O 
  O947     1.0000 0.36572  0.56005  0.64000  Biso   1.000  O 
  O948     1.0000 0.33333  0.56410  0.64000  Biso   1.000  O 
  O949     1.0000 0.35762  0.58030  0.64000  Biso   1.000  O 
  O950     1.0000 0.32524  0.58435  0.64000  Biso   1.000  O 
  O951     1.0000 0.33738  0.59244  0.64000  Biso   1.000  O 
  O952     1.0000 0.37787  0.56815  0.64000  Biso   1.000  O 
  O953     1.0000 0.30904  0.54791  0.64000  Biso   1.000  O 
  O954     1.0000 0.32119  0.55601  0.64000  Biso   1.000  O 
  O955     1.0000 0.36977  0.58839  0.64000  Biso   1.000  O 
  O956     1.0000 0.38192  0.59649  0.64000  Biso   1.000  O 
  O957     1.0000 0.31309  0.57625  0.64000  Biso   1.000  O 
  O958     1.0000 0.34953  0.60054  0.64000  Biso   1.000  O 
  O959     1.0000 0.36167  0.60864  0.64000  Biso   1.000  O 
  O960     1.0000 0.34143  0.54386  0.64000  Biso   1.000  O 
  O961     1.0000 0.34548  0.64912  0.64000  Biso   1.000  O 
  O962     1.0000 0.35358  0.62888  0.64000  Biso   1.000  O 
  O963     1.0000 0.36572  0.63698  0.64000  Biso   1.000  O 
  O964     1.0000 0.33333  0.64103  0.64000  Biso   1.000  O 
  O965     1.0000 0.35762  0.65722  0.64000  Biso   1.000  O 
  O966     1.0000 0.32524  0.66127  0.64000  Biso   1.000  O 
  O967     1.0000 0.33738  0.66937  0.64000  Biso   1.000  O 
  O968     1.0000 0.37787  0.64507  0.64000  Biso   1.000  O 
  O969     1.0000 0.30904  0.62483  0.64000  Biso   1.000  O 
  O970     1.0000 0.32119  0.63293  0.64000  Biso   1.000  O 
  O971     1.0000 0.36977  0.66532  0.64000  Biso   1.000  O 
  O972     1.0000 0.38192  0.67341  0.64000  Biso   1.000  O 
  O973     1.0000 0.31309  0.65317  0.64000  Biso   1.000  O 
  O974     1.0000 0.34953  0.67746  0.64000  Biso   1.000  O 
  O975     1.0000 0.36167  0.68556  0.64000  Biso   1.000  O 
  O976     1.0000 0.34143  0.62078  0.64000  Biso   1.000  O 
  O977     1.0000 0.34548  0.72605  0.64000  Biso   1.000  O 
  O978     1.0000 0.35358  0.70580  0.64000  Biso   1.000  O 
  O979     1.0000 0.36572  0.71390  0.64000  Biso   1.000  O 
  O980     1.0000 0.33333  0.71795  0.64000  Biso   1.000  O 
  O981     1.0000 0.35762  0.73414  0.64000  Biso   1.000  O 
  O982     1.0000 0.32524  0.73819  0.64000  Biso   1.000  O 
  O983     1.0000 0.33738  0.74629  0.64000  Biso   1.000  O 
  O984     1.0000 0.37787  0.72200  0.64000  Biso   1.000  O 
  O985     1.0000 0.30904  0.70175  0.64000  Biso   1.000  O 
  O986     1.0000 0.32119  0.70985  0.64000  Biso   1.000  O 
  O987     1.0000 0.36977  0.74224  0.64000  Biso   1.000  O 
  O988     1.0000 0.38192  0.75034  0.64000  Biso   1.000  O 
  O989     1.0000 0.31309  0.73009  0.64000  Biso   1.000  O 
  O990     1.0000 0.34953  0.75439  0.64000  Biso   1.000  O 
  O991     1.0000 0.36167  0.76248  0.64000  Biso   1.000  O 
  O992     1.0000 0.34143  0.69771  0.64000  Biso   1.000  O 
  O993     1.0000 0.34548  0.80297  0.64000  Biso   1.000  O 
  O994     1.0000 0.35358  0.78273  0.64000  Biso   1.000  O 
  O995     1.0000 0.36572  0.79082  0.64000  Biso   1.000  O 
  O996     1.0000 0.33333  0.79487  0.64000  Biso   1.000  O 
  O997     1.0000 0.35762  0.81107  0.64000  Biso   1.000  O 
  O998     1.0000 0.32524  0.81511  0.64000  Biso   1.000  O 
  O999     1.0000 0.33738  0.82321  0.64000  Biso   1.000  O 
  O1000    1.0000 0.37787  0.79892  0.64000  Biso   1.000  O 
  O1001    1.0000 0.30904  0.77868  0.64000  Biso   1.000  O 
  O1002    1.0000 0.32119  0.78677  0.64000  Biso   1.000  O 
  O1003    1.0000 0.36977  0.81916  0.64000  Biso   1.000  O 
  O1004    1.0000 0.38192  0.82726  0.64000  Biso   1.000  O 
  O1005    1.0000 0.31309  0.80702  0.64000  Biso   1.000  O 
  O1006    1.0000 0.34953  0.83131  0.64000  Biso   1.000  O 
  O1007    1.0000 0.36167  0.83941  0.64000  Biso   1.000  O 
  O1008    1.0000 0.34143  0.77463  0.64000  Biso   1.000  O 
  O1009    1.0000 0.34548  0.87989  0.64000  Biso   1.000  O 
  O1010    1.0000 0.35358  0.85965  0.64000  Biso   1.000  O 
  O1011    1.0000 0.36572  0.86775  0.64000  Biso   1.000  O 
  O1012    1.0000 0.33333  0.87179  0.64000  Biso   1.000  O 
  O1013    1.0000 0.35762  0.88799  0.64000  Biso   1.000  O 
  O1014    1.0000 0.32524  0.89204  0.64000  Biso   1.000  O 
  O1015    1.0000 0.33738  0.90013  0.64000  Biso   1.000  O 
  O1016    1.0000 0.37787  0.87584  0.64000  Biso   1.000  O 
  O1017    1.0000 0.30904  0.85560  0.64000  Biso   1.000  O 
  O1018    1.0000 0.32119  0.86370  0.64000  Biso   1.000  O 
  O1019    1.0000 0.36977  0.89609  0.64000  Biso   1.000  O 
  O1020    1.0000 0.38192  0.90418  0.64000  Biso   1.000  O 
  O1021    1.0000 0.31309  0.88394  0.64000  Biso   1.000  O 
  O1022    1.0000 0.34953  0.90823  0.64000  Biso   1.000  O 
  O1023    1.0000 0.36167  0.91633  0.64000  Biso   1.000  O 
  O1024    1.0000 0.34143  0.85155  0.64000  Biso   1.000  O 
  O1025    1.0000 0.34548  0.95682  0.64000  Biso   1.000  O 
  O1026    1.0000 0.35358  0.93657  0.64000  Biso   1.000  O 
  O1027    1.0000 0.36572  0.94467  0.64000  Biso   1.000  O 
  O1028    1.0000 0.33333  0.94872  0.64000  Biso   1.000  O 
  O1029    1.0000 0.35762  0.96491  0.64000  Biso   1.000  O 
  O1030    1.0000 0.32524  0.96896  0.64000  Biso   1.000  O 
  O1031    1.0000 0.33738  0.97706  0.64000  Biso   1.000  O 
  O1032    1.0000 0.37787  0.95277  0.64000  Biso   1.000  O 
  O1033    1.0000 0.30904  0.93252  0.64000  Biso   1.000  O 
  O1034    1.0000 0.32119  0.94062  0.64000  Biso   1.000  O 
  O1035    1.0000 0.36977  0.97301  0.64000  Biso   1.000  O 
  O1036    1.0000 0.38192  0.98111  0.64000  Biso   1.000  O 
  O1037    1.0000 0.31309  0.96086  0.64000  Biso   1.000  O 
  O1038    1.0000 0.34953  0.98516  0.64000  Biso   1.000  O 
  O1039    1.0000 0.36167  0.99325  0.64000  Biso   1.000  O 
  O1040    1.0000 0.34143  0.92848  0.64000  Biso   1.000  O 
  O1041    1.0000 0.42240  0.03374  0.64000  Biso   1.000  O 
  O1042    1.0000 0.43050  0.01350  0.64000  Biso   1.000  O 
  O1043    1.0000 0.44265  0.02159  0.64000  Biso   1.000  O 
  O1044    1.0000 0.41026  0.02564  0.64000  Biso   1.000  O 
  O1045    1.0000 0.43455  0.04184  0.64000  Biso   1.000  O 
  O1046    1.0000 0.40216  0.04588  0.64000  Biso   1.000  O 
  O1047    1.0000 0.41430  0.05398  0.64000  Biso   1.000  O 
  O1048    1.0000 0.45479  0.02969  0.64000  Biso   1.000  O 
  O1049    1.0000 0.38596  0.00945  0.64000  Biso   1.000  O 
  O1050    1.0000 0.39811  0.01754  0.64000  Biso   1.000  O 
  O1051    1.0000 0.44669  0.04993  0.64000  Biso   1.000  O 
  O1052    1.0000 0.45884  0.05803  0.64000  Biso   1.000  O 
  O1053    1.0000 0.39001  0.03779  0.64000  Biso   1.000  O 
  O1054    1.0000 0.42645  0.06208  0.64000  Biso   1.000  O 
  O1055    1.0000 0.43860  0.07018  0.64000  Biso   1.000  O 
  O1056    1.0000 0.41835  0.00540  0.64000  Biso   1.000  O 
  O1057    1.0000 0.42240  0.11066  0.64000  Biso   1.000  O 
  O1058    1.0000 0.43050  0.09042  0.64000  Biso   1.000  O 
  O1059    1.0000 0.44265  0.09852  0.64000  Biso   1.000  O 
  O1060    1.0000 0.41026  0.10256  0.64000  Biso   1.000  O 
  O1061    1.0000 0.43455  0.11876  0.64000  Biso   1.000  O 
  O1062    1.0000 0.40216  0.12281  0.64000  Biso   1.000  O 
  O1063    1.0000 0.41430  0.13090  0.64000  Biso   1.000  O 
  O1064    1.0000 0.45479  0.10661  0.64000  Biso   1.000  O 
  O1065    1.0000 0.38596  0.08637  0.64000  Biso   1.000  O 
  O1066    1.0000 0.39811  0.09447  0.64000  Biso   1.000  O 
  O1067    1.0000 0.44669  0.12686  0.64000  Biso   1.000  O 
  O1068    1.0000 0.45884  0.13495  0.64000  Biso   1.000  O 
  O1069    1.0000 0.39001  0.11471  0.64000  Biso   1.000  O 
  O1070    1.0000 0.42645  0.13900  0.64000  Biso   1.000  O 
  O1071    1.0000 0.43860  0.14710  0.64000  Biso   1.000  O 
  O1072    1.0000 0.41835  0.08232  0.64000  Biso   1.000  O 
  O1073    1.0000 0.42240  0.18758  0.64000  Biso   1.000  O 
  O1074    1.0000 0.43050  0.16734  0.64000  Biso   1.000  O 
  O1075    1.0000 0.44265  0.17544  0.64000  Biso   1.000  O 
  O1076    1.0000 0.41026  0.17949  0.64000  Biso   1.000  O 
  O1077    1.0000 0.43455  0.19568  0.64000  Biso   1.000  O 
  O1078    1.0000 0.40216  0.19973  0.64000  Biso   1.000  O 
  O1079    1.0000 0.41430  0.20783  0.64000  Biso   1.000  O 
  O1080    1.0000 0.45479  0.18354  0.64000  Biso   1.000  O 
  O1081    1.0000 0.38596  0.16329  0.64000  Biso   1.000  O 
  O1082    1.0000 0.39811  0.17139  0.64000  Biso   1.000  O 
  O1083    1.0000 0.44669  0.20378  0.64000  Biso   1.000  O 
  O1084    1.0000 0.45884  0.21188  0.64000  Biso   1.000  O 
  O1085    1.0000 0.39001  0.19163  0.64000  Biso   1.000  O 
  O1086    1.0000 0.42645  0.21592  0.64000  Biso   1.000  O 
  O1087    1.0000 0.43860  0.22402  0.64000  Biso   1.000  O 
  O1088    1.0000 0.41835  0.15924  0.64000  Biso   1.000  O 
  O1089    1.0000 0.42240  0.26451  0.64000  Biso   1.000  O 
  O1090    1.0000 0.43050  0.24426  0.64000  Biso   1.000  O 
  O1091    1.0000 0.44265  0.25236  0.64000  Biso   1.000  O 
  O1092    1.0000 0.41026  0.25641  0.64000  Biso   1.000  O 
  O1093    1.0000 0.43455  0.27260  0.64000  Biso   1.000  O 
  O1094    1.0000 0.40216  0.27665  0.64000  Biso   1.000  O 
  O1095    1.0000 0.41430  0.28475  0.64000  Biso   1.000  O 
  O1096    1.0000 0.45479  0.26046  0.64000  Biso   1.000  O 
  O1097    1.0000 0.38596  0.24022  0.64000  Biso   1.000  O 
  O1098    1.0000 0.39811  0.24831  0.64000  Biso   1.000  O 
  O1099    1.0000 0.44669  0.28070  0.64000  Biso   1.000  O 
  O1100    1.0000 0.45884  0.28880  0.64000  Biso   1.000  O 
  O1101    1.0000 0.39001  0.26856  0.64000  Biso   1.000  O 
  O1102    1.0000 0.42645  0.29285  0.64000  Biso   1.000  O 
  O1103    1.0000 0.43860  0.30094  0.64000  Biso   1.000  O 
  O1104    1.0000 0.41835  0.23617  0.64000  Biso   1.000  O 
  O1105    1.0000 0.42240  0.34143  0.64000  Biso   1.000  O 
  O1106    1.0000 0.43050  0.32119  0.64000  Biso   1.000  O 
  O1107    1.0000 0.44265  0.32928  0.64000  Biso   1.000  O 
  O1108    1.0000 0.41026  0.33333  0.64000  Biso   1.000  O 
  O1109    1.0000 0.43455  0.34953  0.64000  Biso   1.000  O 
  O1110    1.0000 0.40216  0.35358  0.64000  Biso   1.000  O 
  O1111    1.0000 0.41430  0.36167  0.64000  Biso   1.000  O 
  O1112    1.0000 0.45479  0.33738  0.64000  Biso   1.000  O 
  O1113    1.0000 0.38596  0.31714  0.64000  Biso   1.000  O 
  O1114    1.0000 0.39811  0.32524  0.64000  Biso   1.000  O 
  O1115    1.0000 0.44669  0.35762  0.64000  Biso   1.000  O 
  O1116    1.0000 0.45884  0.36572  0.64000  Biso   1.000  O 
  O1117    1.0000 0.39001  0.34548  0.64000  Biso   1.000  O 
  O1118    1.0000 0.42645  0.36977  0.64000  Biso   1.000  O 
  O1119    1.0000 0.43860  0.37787  0.64000  Biso   1.000  O 
  O1120    1.0000 0.41835  0.31309  0.64000  Biso   1.000  O 
  O1121    1.0000 0.42240  0.41835  0.64000  Biso   1.000  O 
  O1122    1.0000 0.43050  0.39811  0.64000  Biso   1.000  O 
  O1123    1.0000 0.44265  0.40621  0.64000  Biso   1.000  O 
  O1124    1.0000 0.41026  0.41026  0.64000  Biso   1.000  O 
  O1125    1.0000 0.43455  0.42645  0.64000  Biso   1.000  O 
  O1126    1.0000 0.40216  0.43050  0.64000  Biso   1.000  O 
  O1127    1.0000 0.41430  0.43860  0.64000  Biso   1.000  O 
  O1128    1.0000 0.45479  0.41430  0.64000  Biso   1.000  O 
  O1129    1.0000 0.38596  0.39406  0.64000  Biso   1.000  O 
  O1130    1.0000 0.39811  0.40216  0.64000  Biso   1.000  O 
  O1131    1.0000 0.44669  0.43455  0.64000  Biso   1.000  O 
  O1132    1.0000 0.45884  0.44265  0.64000  Biso   1.000  O 
  O1133    1.0000 0.39001  0.42240  0.64000  Biso   1.000  O 
  O1134    1.0000 0.42645  0.44669  0.64000  Biso   1.000  O 
  O1135    1.0000 0.43860  0.45479  0.64000  Biso   1.000  O 
  O1136    1.0000 0.41835  0.39001  0.64000  Biso   1.000  O 
  O1137    1.0000 0.42240  0.49528  0.64000  Biso   1.000  O 
  O1138    1.0000 0.43050  0.47503  0.64000  Biso   1.000  O 
  O1139    1.0000 0.44265  0.48313  0.64000  Biso   1.000  O 
  O1140    1.0000 0.41026  0.48718  0.64000  Biso   1.000  O 
  O1141    1.0000 0.43455  0.50337  0.64000  Biso   1.000  O 
  O1142    1.0000 0.40216  0.50742  0.64000  Biso   1.000  O 
  O1143    1.0000 0.41430  0.51552  0.64000  Biso   1.000  O 
  O1144    1.0000 0.45479  0.49123  0.64000  Biso   1.000  O 
  O1145    1.0000 0.38596  0.47099  0.64000  Biso   1.000  O 
  O1146    1.0000 0.39811  0.47908  0.64000  Biso   1.000  O 
  O1147    1.0000 0.44669  0.51147  0.64000  Biso   1.000  O 
  O1148    1.0000 0.45884  0.51957  0.64000  Biso   1.000  O 
  O1149    1.0000 0.39001  0.49933  0.64000  Biso   1.000  O 
  O1150    1.0000 0.42645  0.52362  0.64000  Biso   1.000  O 
  O1151    1.0000 0.43860  0.53171  0.64000  Biso   1.000  O 
  O1152    1.0000 0.41835  0.46694  0.64000  Biso   1.000  O 
  O1153    1.0000 0.42240  0.57220  0.64000  Biso   1.000  O 
  O1154    1.0000 0.43050  0.55196  0.64000  Biso   1.000  O 
  O1155    1.0000 0.44265  0.56005  0.64000  Biso   1.000  O 
  O1156    1.0000 0.41026  0.56410  0.64000  Biso   1.000  O 
  O1157    1.0000 0.43455  0.58030  0.64000  Biso   1.000  O 
  O1158    1.0000 0.40216  0.58435  0.64000  Biso   1.000  O 
  O1159    1.0000 0.41430  0.59244  0.64000  Biso   1.000  O 
  O1160    1.0000 0.45479  0.56815  0.64000  Biso   1.000  O 
  O1161    1.0000 0.38596  0.54791  0.64000  Biso   1.000  O 
  O1162    1.0000 0.39811  0.55601  0.64000  Biso   1.000  O 
  O1163    1.0000 0.44669  0.58839  0.64000  Biso   1.000  O 
  O1164    1.0000 0.45884  0.59649  0.64000  Biso   1.000  O 
  O1165    1.0000 0.39001  0.57625  0.64000  Biso   1.000  O 
  O1166    1.0000 0.42645  0.60054  0.64000  Biso   1.000  O 
  O1167    1.0000 0.43860  0.60864  0.64000  Biso   1.000  O 
  O1168    1.0000 0.41835  0.54386  0.64000  Biso   1.000  O 
  O1169    1.0000 0.42240  0.64912  0.64000  Biso   1.000  O 
  O1170    1.0000 0.43050  0.62888  0.64000  Biso   1.000  O 
  O1171    1.0000 0.44265  0.63698  0.64000  Biso   1.000  O 
  O1172    1.0000 0.41026  0.64103  0.64000  Biso   1.000  O 
  O1173    1.0000 0.43455  0.65722  0.64000  Biso   1.000  O 
  O1174    1.0000 0.40216  0.66127  0.64000  Biso   1.000  O 
  O1175    1.0000 0.41430  0.66937  0.64000  Biso   1.000  O 
  O1176    1.0000 0.45479  0.64507  0.64000  Biso   1.000  O 
  O1177    1.0000 0.38596  0.62483  0.64000  Biso   1.000  O 
  O1178    1.0000 0.39811  0.63293  0.64000  Biso   1.000  O 
  O1179    1.0000 0.44669  0.66532  0.64000  Biso   1.000  O 
  O1180    1.0000 0.45884  0.67341  0.64000  Biso   1.000  O 
  O1181    1.0000 0.39001  0.65317  0.64000  Biso   1.000  O 
  O1182    1.0000 0.42645  0.67746  0.64000  Biso   1.000  O 
  O1183    1.0000 0.43860  0.68556  0.64000  Biso   1.000  O 
  O1184    1.0000 0.41835  0.62078  0.64000  Biso   1.000  O 
  O1185    1.0000 0.42240  0.72605  0.64000  Biso   1.000  O 
  O1186    1.0000 0.43050  0.70580  0.64000  Biso   1.000  O 
  O1187    1.0000 0.44265  0.71390  0.64000  Biso   1.000  O 
  O1188    1.0000 0.41026  0.71795  0.64000  Biso   1.000  O 
  O1189    1.0000 0.43455  0.73414  0.64000  Biso   1.000  O 
  O1190    1.0000 0.40216  0.73819  0.64000  Biso   1.000  O 
  O1191    1.0000 0.41430  0.74629  0.64000  Biso   1.000  O 
  O1192    1.0000 0.45479  0.72200  0.64000  Biso   1.000  O 
  O1193    1.0000 0.38596  0.70175  0.64000  Biso   1.000  O 
  O1194    1.0000 0.39811  0.70985  0.64000  Biso   1.000  O 
  O1195    1.0000 0.44669  0.74224  0.64000  Biso   1.000  O 
  O1196    1.0000 0.45884  0.75034  0.64000  Biso   1.000  O 
  O1197    1.0000 0.39001  0.73009  0.64000  Biso   1.000  O 
  O1198    1.0000 0.42645  0.75439  0.64000  Biso   1.000  O 
  O1199    1.0000 0.43860  0.76248  0.64000  Biso   1.000  O 
  O1200    1.0000 0.41835  0.69771  0.64000  Biso   1.000  O 
  O1201    1.0000 0.42240  0.80297  0.64000  Biso   1.000  O 
  O1202    1.0000 0.43050  0.78273  0.64000  Biso   1.000  O 
  O1203    1.0000 0.44265  0.79082  0.64000  Biso   1.000  O 
  O1204    1.0000 0.41026  0.79487  0.64000  Biso   1.000  O 
  O1205    1.0000 0.43455  0.81107  0.64000  Biso   1.000  O 
  O1206    1.0000 0.40216  0.81511  0.64000  Biso   1.000  O 
  O1207    1.0000 0.41430  0.82321  0.64000  Biso   1.000  O 
  O1208    1.0000 0.45479  0.79892  0.64000  Biso   1.000  O 
  O1209    1.0000 0.38596  0.77868  0.64000  Biso   1.000  O 
  O1210    1.0000 0.39811  0.78677  0.64000  Biso   1.000  O 
  O1211    1.0000 0.44669  0.81916  0.64000  Biso   1.000  O 
  O1212    1.0000 0.45884  0.82726  0.64000  Biso   1.000  O 
  O1213    1.0000 0.39001  0.80702  0.64000  Biso   1.000  O 
  O1214    1.0000 0.42645  0.83131  0.64000  Biso   1.000  O 
  O1215    1.0000 0.43860  0.83941  0.64000  Biso   1.000  O 
  O1216    1.0000 0.41835  0.77463  0.64000  Biso   1.000  O 
  O1217    1.0000 0.42240  0.87989  0.64000  Biso   1.000  O 
  O1218    1.0000 0.43050  0.85965  0.64000  Biso   1.000  O 
  O1219    1.0000 0.44265  0.86775  0.64000  Biso   1.000  O 
  O1220    1.0000 0.41026  0.87179  0.64000  Biso   1.000  O 
  O1221    1.0000 0.43455  0.88799  0.64000  Biso   1.000  O 
  O1222    1.0000 0.40216  0.89204  0.64000  Biso   1.000  O 
  O1223    1.0000 0.41430  0.90013  0.64000  Biso   1.000  O 
  O1224    1.0000 0.45479  0.87584  0.64000  Biso   1.000  O 
  O1225    1.0000 0.38596  0.85560  0.64000  Biso   1.000  O 
  O1226    1.0000 0.39811  0.86370  0.64000  Biso   1.000  O 
  O1227    1.0000 0.44669  0.89609  0.64000  Biso   1.000  O 
  O1228    1.0000 0.45884  0.90418  0.64000  Biso   1.000  O 
  O1229    1.0000 0.39001  0.88394  0.64000  Biso   1.000  O 
  O1230    1.0000 0.42645  0.90823  0.64000  Biso   1.000  O 
  O1231    1.0000 0.43860  0.91633  0.64000  Biso   1.000  O 
  O1232    1.0000 0.41835  0.85155  0.64000  Biso   1.000  O 
  O1233    1.0000 0.42240  0.95682  0.64000  Biso   1.000  O 
  O1234    1.0000 0.43050  0.93657  0.64000  Biso   1.000  O 
  O1235    1.0000 0.44265  0.94467  0.64000  Biso   1.000  O 
  O1236    1.0000 0.41026  0.94872  0.64000  Biso   1.000  O 
  O1237    1.0000 0.43455  0.96491  0.64000  Biso   1.000  O 
  O1238    1.0000 0.40216  0.96896  0.64000  Biso   1.000  O 
  O1239    1.0000 0.41430  0.97706  0.64000  Biso   1.000  O 
  O1240    1.0000 0.45479  0.95277  0.64000  Biso   1.000  O 
  O1241    1.0000 0.38596  0.93252  0.64000  Biso   1.000  O 
  O1242    1.0000 0.39811  0.94062  0.64000  Biso   1.000  O 
  O1243    1.0000 0.44669  0.97301  0.64000  Biso   1.000  O 
  O1244    1.0000 0.45884  0.98111  0.64000  Biso   1.000  O 
  O1245    1.0000 0.39001  0.96086  0.64000  Biso   1.000  O 
  O1246    1.0000 0.42645  0.98516  0.64000  Biso   1.000  O 
  O1247    1.0000 0.43860  0.99325  0.64000  Biso   1.000  O 
  O1248    1.0000 0.41835  0.92848  0.64000  Biso   1.000  O 
  O1249    1.0000 0.49933  0.03374  0.64000  Biso   1.000  O 
  O1250    1.0000 0.50742  0.01350  0.64000  Biso   1.000  O 
  O1251    1.0000 0.51957  0.02159  0.64000  Biso   1.000  O 
  O1252    1.0000 0.48718  0.02564  0.64000  Biso   1.000  O 
  O1253    1.0000 0.51147  0.04184  0.64000  Biso   1.000  O 
  O1254    1.0000 0.47908  0.04588  0.64000  Biso   1.000  O 
  O1255    1.0000 0.49123  0.05398  0.64000  Biso   1.000  O 
  O1256    1.0000 0.53171  0.02969  0.64000  Biso   1.000  O 
  O1257    1.0000 0.46289  0.00945  0.64000  Biso   1.000  O 
  O1258    1.0000 0.47503  0.01754  0.64000  Biso   1.000  O 
  O1259    1.0000 0.52362  0.04993  0.64000  Biso   1.000  O 
  O1260    1.0000 0.53576  0.05803  0.64000  Biso   1.000  O 
  O1261    1.0000 0.46694  0.03779  0.64000  Biso   1.000  O 
  O1262    1.0000 0.50337  0.06208  0.64000  Biso   1.000  O 
  O1263    1.0000 0.51552  0.07018  0.64000  Biso   1.000  O 
  O1264    1.0000 0.49528  0.00540  0.64000  Biso   1.000  O 
  O1265    1.0000 0.49933  0.11066  0.64000  Biso   1.000  O 
  O1266    1.0000 0.50742  0.09042  0.64000  Biso   1.000  O 
  O1267    1.0000 0.51957  0.09852  0.64000  Biso   1.000  O 
  O1268    1.0000 0.48718  0.10256  0.64000  Biso   1.000  O 
  O1269    1.0000 0.51147  0.11876  0.64000  Biso   1.000  O 
  O1270    1.0000 0.47908  0.12281  0.64000  Biso   1.000  O 
  O1271    1.0000 0.49123  0.13090  0.64000  Biso   1.000  O 
  O1272    1.0000 0.53171  0.10661  0.64000  Biso   1.000  O 
  O1273    1.0000 0.46289  0.08637  0.64000  Biso   1.000  O 
  O1274    1.0000 0.47503  0.09447  0.64000  Biso   1.000  O 
  O1275    1.0000 0.52362  0.12686  0.64000  Biso   1.000  O 
  O1276    1.0000 0.53576  0.13495  0.64000  Biso   1.000  O 
  O1277    1.0000 0.46694  0.11471  0.64000  Biso   1.000  O 
  O1278    1.0000 0.50337  0.13900  0.64000  Biso   1.000  O 
  O1279    1.0000 0.51552  0.14710  0.64000  Biso   1.000  O 
  O1280    1.0000 0.49528  0.08232  0.64000  Biso   1.000  O 
  O1281    1.0000 0.49933  0.18758  0.64000  Biso   1.000  O 
  O1282    1.0000 0.50742  0.16734  0.64000  Biso   1.000  O 
  O1283    1.0000 0.51957  0.17544  0.64000  Biso   1.000  O 
  O1284    1.0000 0.48718  0.17949  0.64000  Biso   1.000  O 
  O1285    1.0000 0.51147  0.19568  0.64000  Biso   1.000  O 
  O1286    1.0000 0.47908  0.19973  0.64000  Biso   1.000  O 
  O1287    1.0000 0.49123  0.20783  0.64000  Biso   1.000  O 
  O1288    1.0000 0.53171  0.18354  0.64000  Biso   1.000  O 
  O1289    1.0000 0.46289  0.16329  0.64000  Biso   1.000  O 
  O1290    1.0000 0.47503  0.17139  0.64000  Biso   1.000  O 
  O1291    1.0000 0.52362  0.20378  0.64000  Biso   1.000  O 
  O1292    1.0000 0.53576  0.21188  0.64000  Biso   1.000  O 
  O1293    1.0000 0.46694  0.19163  0.64000  Biso   1.000  O 
  O1294    1.0000 0.50337  0.21592  0.64000  Biso   1.000  O 
  O1295    1.0000 0.51552  0.22402  0.64000  Biso   1.000  O 
  O1296    1.0000 0.49528  0.15924  0.64000  Biso   1.000  O 
  O1297    1.0000 0.49933  0.26451  0.64000  Biso   1.000  O 
  O1298    1.0000 0.50742  0.24426  0.64000  Biso   1.000  O 
  O1299    1.0000 0.51957  0.25236  0.64000  Biso   1.000  O 
  O1300    1.0000 0.48718  0.25641  0.64000  Biso   1.000  O 
  O1301    1.0000 0.51147  0.27260  0.64000  Biso   1.000  O 
  O1302    1.0000 0.47908  0.27665  0.64000  Biso   1.000  O 
  O1303    1.0000 0.49123  0.28475  0.64000  Biso   1.000  O 
  O1304    1.0000 0.53171  0.26046  0.64000  Biso   1.000  O 
  O1305    1.0000 0.46289  0.24022  0.64000  Biso   1.000  O 
  O1306    1.0000 0.47503  0.24831  0.64000  Biso   1.000  O 
  O1307    1.0000 0.52362  0.28070  0.64000  Biso   1.000  O 
  O1308    1.0000 0.53576  0.28880  0.64000  Biso   1.000  O 
  O1309    1.0000 0.46694  0.26856  0.64000  Biso   1.000  O 
  O1310    1.0000 0.50337  0.29285  0.64000  Biso   1.000  O 
  O1311    1.0000 0.51552  0.30094  0.64000  Biso   1.000  O 
  O1312    1.0000 0.49528  0.23617  0.64000  Biso   1.000  O 
  O1313    1.0000 0.49933  0.34143  0.64000  Biso   1.000  O 
  O1314    1.0000 0.50742  0.32119  0.64000  Biso   1.000  O 
  O1315    1.0000 0.51957  0.32928  0.64000  Biso   1.000  O 
  O1316    1.0000 0.48718  0.33333  0.64000  Biso   1.000  O 
  O1317    1.0000 0.51147  0.34953  0.64000  Biso   1.000  O 
  O1318    1.0000 0.47908  0.35358  0.64000  Biso   1.000  O 
  O1319    1.0000 0.49123  0.36167  0.64000  Biso   1.000  O 
  O1320    1.0000 0.53171  0.33738  0.64000  Biso   1.000  O 
  O1321    1.0000 0.46289  0.31714  0.64000  Biso   1.000  O 
  O1322    1.0000 0.47503  0.32524  0.64000  Biso   1.000  O 
  O1323    1.0000 0.52362  0.35762  0.64000  Biso   1.000  O 
  O1324    1.0000 0.53576  0.36572  0.64000  Biso   1.000  O 
  O1325    1.0000 0.46694  0.34548  0.64000  Biso   1.000  O 
  O1326    1.0000 0.50337  0.36977  0.64000  Biso   1.000  O 
  O1327    1.0000 0.51552  0.37787  0.64000  Biso   1.000  O 
  O1328    1.0000 0.49528  0.31309  0.64000  Biso   1.000  O 
  O1329    1.0000 0.49933  0.41835  0.64000  Biso   1.000  O 
  O1330    1.0000 0.50742  0.39811  0.64000  Biso   1.000  O 
  O1331    1.0000 0.51957  0.40621  0.64000  Biso   1.000  O 
  O1332    1.0000 0.48718  0.41026  0.64000  Biso   1.000  O 
  O1333    1.0000 0.51147  0.42645  0.64000  Biso   1.000  O 
  O1334    1.0000 0.47908  0.43050  0.64000  Biso   1.000  O 
  O1335    1.0000 0.49123  0.43860  0.64000  Biso   1.000  O 
  O1336    1.0000 0.53171  0.41430  0.64000  Biso   1.000  O 
  O1337    1.0000 0.46289  0.39406  0.64000  Biso   1.000  O 
  O1338    1.0000 0.47503  0.40216  0.64000  Biso   1.000  O 
  O1339    1.0000 0.52362  0.43455  0.64000  Biso   1.000  O 
  O1340    1.0000 0.53576  0.44265  0.64000  Biso   1.000  O 
  O1341    1.0000 0.46694  0.42240  0.64000  Biso   1.000  O 
  O1342    1.0000 0.50337  0.44669  0.64000  Biso   1.000  O 
  O1343    1.0000 0.51552  0.45479  0.64000  Biso   1.000  O 
  O1344    1.0000 0.49528  0.39001  0.64000  Biso   1.000  O 
  O1345    1.0000 0.49933  0.49528  0.64000  Biso   1.000  O 
  O1346    1.0000 0.50742  0.47503  0.64000  Biso   1.000  O 
  O1347    1.0000 0.51957  0.48313  0.64000  Biso   1.000  O 
  O1348    1.0000 0.48718  0.48718  0.64000  Biso   1.000  O 
  O1349    1.0000 0.51147  0.50337  0.64000  Biso   1.000  O 
  O1350    1.0000 0.47908  0.50742  0.64000  Biso   1.000  O 
  O1351    1.0000 0.49123  0.51552  0.64000  Biso   1.000  O 
  O1352    1.0000 0.53171  0.49123  0.64000  Biso   1.000  O 
  O1353    1.0000 0.46289  0.47099  0.64000  Biso   1.000  O 
  O1354    1.0000 0.47503  0.47908  0.64000  Biso   1.000  O 
  O1355    1.0000 0.52362  0.51147  0.64000  Biso   1.000  O 
  O1356    1.0000 0.53576  0.51957  0.64000  Biso   1.000  O 
  O1357    1.0000 0.46694  0.49933  0.64000  Biso   1.000  O 
  O1358    1.0000 0.50337  0.52362  0.64000  Biso   1.000  O 
  O1359    1.0000 0.51552  0.53171  0.64000  Biso   1.000  O 
  O1360    1.0000 0.49528  0.46694  0.64000  Biso   1.000  O 
  O1361    1.0000 0.49933  0.57220  0.64000  Biso   1.000  O 
  O1362    1.0000 0.50742  0.55196  0.64000  Biso   1.000  O 
  O1363    1.0000 0.51957  0.56005  0.64000  Biso   1.000  O 
  O1364    1.0000 0.48718  0.56410  0.64000  Biso   1.000  O 
  O1365    1.0000 0.51147  0.58030  0.64000  Biso   1.000  O 
  O1366    1.0000 0.47908  0.58435  0.64000  Biso   1.000  O 
  O1367    1.0000 0.49123  0.59244  0.64000  Biso   1.000  O 
  O1368    1.0000 0.53171  0.56815  0.64000  Biso   1.000  O 
  O1369    1.0000 0.46289  0.54791  0.64000  Biso   1.000  O 
  O1370    1.0000 0.47503  0.55601  0.64000  Biso   1.000  O 
  O1371    1.0000 0.52362  0.58839  0.64000  Biso   1.000  O 
  O1372    1.0000 0.53576  0.59649  0.64000  Biso   1.000  O 
  O1373    1.0000 0.46694  0.57625  0.64000  Biso   1.000  O 
  O1374    1.0000 0.50337  0.60054  0.64000  Biso   1.000  O 
  O1375    1.0000 0.51552  0.60864  0.64000  Biso   1.000  O 
  O1376    1.0000 0.49528  0.54386  0.64000  Biso   1.000  O 
  O1377    1.0000 0.49933  0.64912  0.64000  Biso   1.000  O 
  O1378    1.0000 0.50742  0.62888  0.64000  Biso   1.000  O 
  O1379    1.0000 0.51957  0.63698  0.64000  Biso   1.000  O 
  O1380    1.0000 0.48718  0.64103  0.64000  Biso   1.000  O 
  O1381    1.0000 0.51147  0.65722  0.64000  Biso   1.000  O 
  O1382    1.0000 0.47908  0.66127  0.64000  Biso   1.000  O 
  O1383    1.0000 0.49123  0.66937  0.64000  Biso   1.000  O 
  O1384    1.0000 0.53171  0.64507  0.64000  Biso   1.000  O 
  O1385    1.0000 0.46289  0.62483  0.64000  Biso   1.000  O 
  O1386    1.0000 0.47503  0.63293  0.64000  Biso   1.000  O 
  O1387    1.0000 0.52362  0.66532  0.64000  Biso   1.000  O 
  O1388    1.0000 0.53576  0.67341  0.64000  Biso   1.000  O 
  O1389    1.0000 0.46694  0.65317  0.64000  Biso   1.000  O 
  O1390    1.0000 0.50337  0.67746  0.64000  Biso   1.000  O 
  O1391    1.0000 0.51552  0.68556  0.64000  Biso   1.000  O 
  O1392    1.0000 0.49528  0.62078  0.64000  Biso   1.000  O 
  O1393    1.0000 0.49933  0.72605  0.64000  Biso   1.000  O 
  O1394    1.0000 0.50742  0.70580  0.64000  Biso   1.000  O 
  O1395    1.0000 0.51957  0.71390  0.64000  Biso   1.000  O 
  O1396    1.0000 0.48718  0.71795  0.64000  Biso   1.000  O 
  O1397    1.0000 0.51147  0.73414  0.64000  Biso   1.000  O 
  O1398    1.0000 0.47908  0.73819  0.64000  Biso   1.000  O 
  O1399    1.0000 0.49123  0.74629  0.64000  Biso   1.000  O 
  O1400    1.0000 0.53171  0.72200  0.64000  Biso   1.000  O 
  O1401    1.0000 0.46289  0.70175  0.64000  Biso   1.000  O 
  O1402    1.0000 0.47503  0.70985  0.64000  Biso   1.000  O 
  O1403    1.0000 0.52362  0.74224  0.64000  Biso   1.000  O 
  O1404    1.0000 0.53576  0.75034  0.64000  Biso   1.000  O 
  O1405    1.0000 0.46694  0.73009  0.64000  Biso   1.000  O 
  O1406    1.0000 0.50337  0.75439  0.64000  Biso   1.000  O 
  O1407    1.0000 0.51552  0.76248  0.64000  Biso   1.000  O 
  O1408    1.0000 0.49528  0.69771  0.64000  Biso   1.000  O 
  O1409    1.0000 0.49933  0.80297  0.64000  Biso   1.000  O 
  O1410    1.0000 0.50742  0.78273  0.64000  Biso   1.000  O 
  O1411    1.0000 0.51957  0.79082  0.64000  Biso   1.000  O 
  O1412    1.0000 0.48718  0.79487  0.64000  Biso   1.000  O 
  O1413    1.0000 0.51147  0.81107  0.64000  Biso   1.000  O 
  O1414    1.0000 0.47908  0.81511  0.64000  Biso   1.000  O 
  O1415    1.0000 0.49123  0.82321  0.64000  Biso   1.000  O 
  O1416    1.0000 0.53171  0.79892  0.64000  Biso   1.000  O 
  O1417    1.0000 0.46289  0.77868  0.64000  Biso   1.000  O 
  O1418    1.0000 0.47503  0.78677  0.64000  Biso   1.000  O 
  O1419    1.0000 0.52362  0.81916  0.64000  Biso   1.000  O 
  O1420    1.0000 0.53576  0.82726  0.64000  Biso   1.000  O 
  O1421    1.0000 0.46694  0.80702  0.64000  Biso   1.000  O 
  O1422    1.0000 0.50337  0.83131  0.64000  Biso   1.000  O 
  O1423    1.0000 0.51552  0.83941  0.64000  Biso   1.000  O 
  O1424    1.0000 0.49528  0.77463  0.64000  Biso   1.000  O 
  O1425    1.0000 0.49933  0.87989  0.64000  Biso   1.000  O 
  O1426    1.0000 0.50742  0.85965  0.64000  Biso   1.000  O 
  O1427    1.0000 0.51957  0.86775  0.64000  Biso   1.000  O 
  O1428    1.0000 0.48718  0.87179  0.64000  Biso   1.000  O 
  O1429    1.0000 0.51147  0.88799  0.64000  Biso   1.000  O 
  O1430    1.0000 0.47908  0.89204  0.64000  Biso   1.000  O 
  O1431    1.0000 0.49123  0.90013  0.64000  Biso   1.000  O 
  O1432    1.0000 0.53171  0.87584  0.64000  Biso   1.000  O 
  O1433    1.0000 0.46289  0.85560  0.64000  Biso   1.000  O 
  O1434    1.0000 0.47503  0.86370  0.64000  Biso   1.000  O 
  O1435    1.0000 0.52362  0.89609  0.64000  Biso   1.000  O 
  O1436    1.0000 0.53576  0.90418  0.64000  Biso   1.000  O 
  O1437    1.0000 0.46694  0.88394  0.64000  Biso   1.000  O 
  O1438    1.0000 0.50337  0.90823  0.64000  Biso   1.000  O 
  O1439    1.0000 0.51552  0.91633  0.64000  Biso   1.000  O 
  O1440    1.0000 0.49528  0.85155  0.64000  Biso   1.000  O 
  O1441    1.0000 0.49933  0.95682  0.64000  Biso   1.000  O 
  O1442    1.0000 0.50742  0.93657  0.64000  Biso   1.000  O 
  O1443    1.0000 0.51957  0.94467  0.64000  Biso   1.000  O 
  O1444    1.0000 0.48718  0.94872  0.64000  Biso   1.000  O 
  O1445    1.0000 0.51147  0.96491  0.64000  Biso   1.000  O 
  O1446    1.0000 0.47908  0.96896  0.64000  Biso   1.000  O 
  O1447    1.0000 0.49123  0.97706  0.64000  Biso   1.000  O 
  O1448    1.0000 0.53171  0.95277  0.64000  Biso   1.000  O 
  O1449    1.0000 0.46289  0.93252  0.64000  Biso   1.000  O 
  O1450    1.0000 0.47503  0.94062  0.64000  Biso   1.000  O 
  O1451    1.0000 0.52362  0.97301  0.64000  Biso   1.000  O 
  O1452    1.0000 0.53576  0.98111  0.64000  Biso   1.000  O 
  O1453    1.0000 0.46694  0.96086  0.64000  Biso   1.000  O 
  O1454    1.0000 0.50337  0.98516  0.64000  Biso   1.000  O 
  O1455    1.0000 0.51552  0.99325  0.64000  Biso   1.000  O 
  O1456    1.0000 0.49528  0.92848  0.64000  Biso   1.000  O 
  O1457    1.0000 0.57625  0.03374  0.64000  Biso   1.000  O 
  O1458    1.0000 0.58435  0.01350  0.64000  Biso   1.000  O 
  O1459    1.0000 0.59649  0.02159  0.64000  Biso   1.000  O 
  O1460    1.0000 0.56410  0.02564  0.64000  Biso   1.000  O 
  O1461    1.0000 0.58839  0.04184  0.64000  Biso   1.000  O 
  O1462    1.0000 0.55601  0.04588  0.64000  Biso   1.000  O 
  O1463    1.0000 0.56815  0.05398  0.64000  Biso   1.000  O 
  O1464    1.0000 0.60864  0.02969  0.64000  Biso   1.000  O 
  O1465    1.0000 0.53981  0.00945  0.64000  Biso   1.000  O 
  O1466    1.0000 0.55196  0.01754  0.64000  Biso   1.000  O 
  O1467    1.0000 0.60054  0.04993  0.64000  Biso   1.000  O 
  O1468    1.0000 0.61269  0.05803  0.64000  Biso   1.000  O 
  O1469    1.0000 0.54386  0.03779  0.64000  Biso   1.000  O 
  O1470    1.0000 0.58030  0.06208  0.64000  Biso   1.000  O 
  O1471    1.0000 0.59244  0.07018  0.64000  Biso   1.000  O 
  O1472    1.0000 0.57220  0.00540  0.64000  Biso   1.000  O 
  O1473    1.0000 0.57625  0.11066  0.64000  Biso   1.000  O 
  O1474    1.0000 0.58435  0.09042  0.64000  Biso   1.000  O 
  O1475    1.0000 0.59649  0.09852  0.64000  Biso   1.000  O 
  O1476    1.0000 0.56410  0.10256  0.64000  Biso   1.000  O 
  O1477    1.0000 0.58839  0.11876  0.64000  Biso   1.000  O 
  O1478    1.0000 0.55601  0.12281  0.64000  Biso   1.000  O 
  O1479    1.0000 0.56815  0.13090  0.64000  Biso   1.000  O 
  O1480    1.0000 0.60864  0.10661  0.64000  Biso   1.000  O 
  O1481    1.0000 0.53981  0.08637  0.64000  Biso   1.000  O 
  O1482    1.0000 0.55196  0.09447  0.64000  Biso   1.000  O 
  O1483    1.0000 0.60054  0.12686  0.64000  Biso   1.000  O 
  O1484    1.0000 0.61269  0.13495  0.64000  Biso   1.000  O 
  O1485    1.0000 0.54386  0.11471  0.64000  Biso   1.000  O 
  O1486    1.0000 0.58030  0.13900  0.64000  Biso   1.000  O 
  O1487    1.0000 0.59244  0.14710  0.64000  Biso   1.000  O 
  O1488    1.0000 0.57220  0.08232  0.64000  Biso   1.000  O 
  O1489    1.0000 0.57625  0.18758  0.64000  Biso   1.000  O 
  O1490    1.0000 0.58435  0.16734  0.64000  Biso   1.000  O 
  O1491    1.0000 0.59649  0.17544  0.64000  Biso   1.000  O 
  O1492    1.0000 0.56410  0.17949  0.64000  Biso   1.000  O 
  O1493    1.0000 0.58839  0.19568  0.64000  Biso   1.000  O 
  O1494    1.0000 0.55601  0.19973  0.64000  Biso   1.000  O 
  O1495    1.0000 0.56815  0.20783  0.64000  Biso   1.000  O 
  O1496    1.0000 0.60864  0.18354  0.64000  Biso   1.000  O 
  O1497    1.0000 0.53981  0.16329  0.64000  Biso   1.000  O 
  O1498    1.0000 0.55196  0.17139  0.64000  Biso   1.000  O 
  O1499    1.0000 0.60054  0.20378  0.64000  Biso   1.000  O 
  O1500    1.0000 0.61269  0.21188  0.64000  Biso   1.000  O 
  O1501    1.0000 0.54386  0.19163  0.64000  Biso   1.000  O 
  O1502    1.0000 0.58030  0.21592  0.64000  Biso   1.000  O 
  O1503    1.0000 0.59244  0.22402  0.64000  Biso   1.000  O 
  O1504    1.0000 0.57220  0.15924  0.64000  Biso   1.000  O 
  O1505    1.0000 0.57625  0.26451  0.64000  Biso   1.000  O 
  O1506    1.0000 0.58435  0.24426  0.64000  Biso   1.000  O 
  O1507    1.0000 0.59649  0.25236  0.64000  Biso   1.000  O 
  O1508    1.0000 0.56410  0.25641  0.64000  Biso   1.000  O 
  O1509    1.0000 0.58839  0.27260  0.64000  Biso   1.000  O 
  O1510    1.0000 0.55601  0.27665  0.64000  Biso   1.000  O 
  O1511    1.0000 0.56815  0.28475  0.64000  Biso   1.000  O 
  O1512    1.0000 0.60864  0.26046  0.64000  Biso   1.000  O 
  O1513    1.0000 0.53981  0.24022  0.64000  Biso   1.000  O 
  O1514    1.0000 0.55196  0.24831  0.64000  Biso   1.000  O 
  O1515    1.0000 0.60054  0.28070  0.64000  Biso   1.000  O 
  O1516    1.0000 0.61269  0.28880  0.64000  Biso   1.000  O 
  O1517    1.0000 0.54386  0.26856  0.64000  Biso   1.000  O 
  O1518    1.0000 0.58030  0.29285  0.64000  Biso   1.000  O 
  O1519    1.0000 0.59244  0.30094  0.64000  Biso   1.000  O 
  O1520    1.0000 0.57220  0.23617  0.64000  Biso   1.000  O 
  O1521    1.0000 0.57625  0.34143  0.64000  Biso   1.000  O 
  O1522    1.0000 0.58435  0.32119  0.64000  Biso   1.000  O 
  O1523    1.0000 0.59649  0.32928  0.64000  Biso   1.000  O 
  O1524    1.0000 0.56410  0.33333  0.64000  Biso   1.000  O 
  O1525    1.0000 0.58839  0.34953  0.64000  Biso   1.000  O 
  O1526    1.0000 0.55601  0.35358  0.64000  Biso   1.000  O 
  O1527    1.0000 0.56815  0.36167  0.64000  Biso   1.000  O 
  O1528    1.0000 0.60864  0.33738  0.64000  Biso   1.000  O 
  O1529    1.0000 0.53981  0.31714  0.64000  Biso   1.000  O 
  O1530    1.0000 0.55196  0.32524  0.64000  Biso   1.000  O 
  O1531    1.0000 0.60054  0.35762  0.64000  Biso   1.000  O 
  O1532    1.0000 0.61269  0.36572  0.64000  Biso   1.000  O 
  O1533    1.0000 0.54386  0.34548  0.64000  Biso   1.000  O 
  O1534    1.0000 0.58030  0.36977  0.64000  Biso   1.000  O 
  O1535    1.0000 0.59244  0.37787  0.64000  Biso   1.000  O 
  O1536    1.0000 0.57220  0.31309  0.64000  Biso   1.000  O 
  O1537    1.0000 0.57625  0.41835  0.64000  Biso   1.000  O 
  O1538    1.0000 0.58435  0.39811  0.64000  Biso   1.000  O 
  O1539    1.0000 0.59649  0.40621  0.64000  Biso   1.000  O 
  O1540    1.0000 0.56410  0.41026  0.64000  Biso   1.000  O 
  O1541    1.0000 0.58839  0.42645  0.64000  Biso   1.000  O 
  O1542    1.0000 0.55601  0.43050  0.64000  Biso   1.000  O 
  O1543    1.0000 0.56815  0.43860  0.64000  Biso   1.000  O 
  O1544    1.0000 0.60864  0.41430  0.64000  Biso   1.000  O 
  O1545    1.0000 0.53981  0.39406  0.64000  Biso   1.000  O 
  O1546    1.0000 0.55196  0.40216  0.64000  Biso   1.000  O 
  O1547    1.0000 0.60054  0.43455  0.64000  Biso   1.000  O 
  O1548    1.0000 0.61269  0.44265  0.64000  Biso   1.000  O 
  O1549    1.0000 0.54386  0.42240  0.64000  Biso   1.000  O 
  O1550    1.0000 0.58030  0.44669  0.64000  Biso   1.000  O 
  O1551    1.0000 0.59244  0.45479  0.64000  Biso   1.000  O 
  O1552    1.0000 0.57220  0.39001  0.64000  Biso   1.000  O 
  O1553    1.0000 0.57625  0.49528  0.64000  Biso   1.000  O 
  O1554    1.0000 0.58435  0.47503  0.64000  Biso   1.000  O 
  O1555    1.0000 0.59649  0.48313  0.64000  Biso   1.000  O 
  O1556    1.0000 0.56410  0.48718  0.64000  Biso   1.000  O 
  O1557    1.0000 0.58839  0.50337  0.64000  Biso   1.000  O 
  O1558    1.0000 0.55601  0.50742  0.64000  Biso   1.000  O 
  O1559    1.0000 0.56815  0.51552  0.64000  Biso   1.000  O 
  O1560    1.0000 0.60864  0.49123  0.64000  Biso   1.000  O 
  O1561    1.0000 0.53981  0.47099  0.64000  Biso   1.000  O 
  O1562    1.0000 0.55196  0.47908  0.64000  Biso   1.000  O 
  O1563    1.0000 0.60054  0.51147  0.64000  Biso   1.000  O 
  O1564    1.0000 0.61269  0.51957  0.64000  Biso   1.000  O 
  O1565    1.0000 0.54386  0.49933  0.64000  Biso   1.000  O 
  O1566    1.0000 0.58030  0.52362  0.64000  Biso   1.000  O 
  O1567    1.0000 0.59244  0.53171  0.64000  Biso   1.000  O 
  O1568    1.0000 0.57220  0.46694  0.64000  Biso   1.000  O 
  O1569    1.0000 0.57625  0.57220  0.64000  Biso   1.000  O 
  O1570    1.0000 0.58435  0.55196  0.64000  Biso   1.000  O 
  O1571    1.0000 0.59649  0.56005  0.64000  Biso   1.000  O 
  O1572    1.0000 0.56410  0.56410  0.64000  Biso   1.000  O 
  O1573    1.0000 0.58839  0.58030  0.64000  Biso   1.000  O 
  O1574    1.0000 0.55601  0.58435  0.64000  Biso   1.000  O 
  O1575    1.0000 0.56815  0.59244  0.64000  Biso   1.000  O 
  O1576    1.0000 0.60864  0.56815  0.64000  Biso   1.000  O 
  O1577    1.0000 0.53981  0.54791  0.64000  Biso   1.000  O 
  O1578    1.0000 0.55196  0.55601  0.64000  Biso   1.000  O 
  O1579    1.0000 0.60054  0.58839  0.64000  Biso   1.000  O 
  O1580    1.0000 0.61269  0.59649  0.64000  Biso   1.000  O 
  O1581    1.0000 0.54386  0.57625  0.64000  Biso   1.000  O 
  O1582    1.0000 0.58030  0.60054  0.64000  Biso   1.000  O 
  O1583    1.0000 0.59244  0.60864  0.64000  Biso   1.000  O 
  O1584    1.0000 0.57220  0.54386  0.64000  Biso   1.000  O 
  O1585    1.0000 0.57625  0.64912  0.64000  Biso   1.000  O 
  O1586    1.0000 0.58435  0.62888  0.64000  Biso   1.000  O 
  O1587    1.0000 0.59649  0.63698  0.64000  Biso   1.000  O 
  O1588    1.0000 0.56410  0.64103  0.64000  Biso   1.000  O 
  O1589    1.0000 0.58839  0.65722  0.64000  Biso   1.000  O 
  O1590    1.0000 0.55601  0.66127  0.64000  Biso   1.000  O 
  O1591    1.0000 0.56815  0.66937  0.64000  Biso   1.000  O 
  O1592    1.0000 0.60864  0.64507  0.64000  Biso   1.000  O 
  O1593    1.0000 0.53981  0.62483  0.64000  Biso   1.000  O 
  O1594    1.0000 0.55196  0.63293  0.64000  Biso   1.000  O 
  O1595    1.0000 0.60054  0.66532  0.64000  Biso   1.000  O 
  O1596    1.0000 0.61269  0.67341  0.64000  Biso   1.000  O 
  O1597    1.0000 0.54386  0.65317  0.64000  Biso   1.000  O 
  O1598    1.0000 0.58030  0.67746  0.64000  Biso   1.000  O 
  O1599    1.0000 0.59244  0.68556  0.64000  Biso   1.000  O 
  O1600    1.0000 0.57220  0.62078  0.64000  Biso   1.000  O 
  O1601    1.0000 0.57625  0.72605  0.64000  Biso   1.000  O 
  O1602    1.0000 0.58435  0.70580  0.64000  Biso   1.000  O 
  O1603    1.0000 0.59649  0.71390  0.64000  Biso   1.000  O 
  O1604    1.0000 0.56410  0.71795  0.64000  Biso   1.000  O 
  O1605    1.0000 0.58839  0.73414  0.64000  Biso   1.000  O 
  O1606    1.0000 0.55601  0.73819  0.64000  Biso   1.000  O 
  O1607    1.0000 0.56815  0.74629  0.64000  Biso   1.000  O 
  O1608    1.0000 0.60864  0.72200  0.64000  Biso   1.000  O 
  O1609    1.0000 0.53981  0.70175  0.64000  Biso   1.000  O 
  O1610    1.0000 0.55196  0.70985  0.64000  Biso   1.000  O 
  O1611    1.0000 0.60054  0.74224  0.64000  Biso   1.000  O 
  O1612    1.0000 0.61269  0.75034  0.64000  Biso   1.000  O 
  O1613    1.0000 0.54386  0.73009  0.64000  Biso   1.000  O 
  O1614    1.0000 0.58030  0.75439  0.64000  Biso   1.000  O 
  O1615    1.0000 0.59244  0.76248  0.64000  Biso   1.000  O 
  O1616    1.0000 0.57220  0.69771  0.64000  Biso   1.000  O 
  O1617    1.0000 0.57625  0.80297  0.64000  Biso   1.000  O 
  O1618    1.0000 0.58435  0.78273  0.64000  Biso   1.000  O 
  O1619    1.0000 0.59649  0.79082  0.64000  Biso   1.000  O 
  O1620    1.0000 0.56410  0.79487  0.64000  Biso   1.000  O 
  O1621    1.0000 0.58839  0.81107  0.64000  Biso   1.000  O 
  O1622    1.0000 0.55601  0.81511  0.64000  Biso   1.000  O 
  O1623    1.0000 0.56815  0.82321  0.64000  Biso   1.000  O 
  O1624    1.0000 0.60864  0.79892  0.64000  Biso   1.000  O 
  O1625    1.0000 0.53981  0.77868  0.64000  Biso   1.000  O 
  O1626    1.0000 0.55196  0.78677  0.64000  Biso   1.000  O 
  O1627    1.0000 0.60054  0.81916  0.64000  Biso   1.000  O 
  O1628    1.0000 0.61269  0.82726  0.64000  Biso   1.000  O 
  O1629    1.0000 0.54386  0.80702  0.64000  Biso   1.000  O 
  O1630    1.0000 0.58030  0.83131  0.64000  Biso   1.000  O 
  O1631    1.0000 0.59244  0.83941  0.64000  Biso   1.000  O 
  O1632    1.0000 0.57220  0.77463  0.64000  Biso   1.000  O 
  O1633    1.0000 0.57625  0.87989  0.64000  Biso   1.000  O 
  O1634    1.0000 0.58435  0.85965  0.64000  Biso   1.000  O 
  O1635    1.0000 0.59649  0.86775  0.64000  Biso   1.000  O 
  O1636    1.0000 0.56410  0.87179  0.64000  Biso   1.000  O 
  O1637    1.0000 0.58839  0.88799  0.64000  Biso   1.000  O 
  O1638    1.0000 0.55601  0.89204  0.64000  Biso   1.000  O 
  O1639    1.0000 0.56815  0.90013  0.64000  Biso   1.000  O 
  O1640    1.0000 0.60864  0.87584  0.64000  Biso   1.000  O 
  O1641    1.0000 0.53981  0.85560  0.64000  Biso   1.000  O 
  O1642    1.0000 0.55196  0.86370  0.64000  Biso   1.000  O 
  O1643    1.0000 0.60054  0.89609  0.64000  Biso   1.000  O 
  O1644    1.0000 0.61269  0.90418  0.64000  Biso   1.000  O 
  O1645    1.0000 0.54386  0.88394  0.64000  Biso   1.000  O 
  O1646    1.0000 0.58030  0.90823  0.64000  Biso   1.000  O 
  O1647    1.0000 0.59244  0.91633  0.64000  Biso   1.000  O 
  O1648    1.0000 0.57220  0.85155  0.64000  Biso   1.000  O 
  O1649    1.0000 0.57625  0.95682  0.64000  Biso   1.000  O 
  O1650    1.0000 0.58435  0.93657  0.64000  Biso   1.000  O 
  O1651    1.0000 0.59649  0.94467  0.64000  Biso   1.000  O 
  O1652    1.0000 0.56410  0.94872  0.64000  Biso   1.000  O 
  O1653    1.0000 0.58839  0.96491  0.64000  Biso   1.000  O 
  O1654    1.0000 0.55601  0.96896  0.64000  Biso   1.000  O 
  O1655    1.0000 0.56815  0.97706  0.64000  Biso   1.000  O 
  O1656    1.0000 0.60864  0.95277  0.64000  Biso   1.000  O 
  O1657    1.0000 0.53981  0.93252  0.64000  Biso   1.000  O 
  O1658    1.0000 0.55196  0.94062  0.64000  Biso   1.000  O 
  O1659    1.0000 0.60054  0.97301  0.64000  Biso   1.000  O 
  O1660    1.0000 0.61269  0.98111  0.64000  Biso   1.000  O 
  O1661    1.0000 0.54386  0.96086  0.64000  Biso   1.000  O 
  O1662    1.0000 0.58030  0.98516  0.64000  Biso   1.000  O 
  O1663    1.0000 0.59244  0.99325  0.64000  Biso   1.000  O 
  O1664    1.0000 0.57220  0.92848  0.64000  Biso   1.000  O 
  O1665    1.0000 0.65317  0.03374  0.64000  Biso   1.000  O 
  O1666    1.0000 0.66127  0.01350  0.64000  Biso   1.000  O 
  O1667    1.0000 0.67341  0.02159  0.64000  Biso   1.000  O 
  O1668    1.0000 0.64103  0.02564  0.64000  Biso   1.000  O 
  O1669    1.0000 0.66532  0.04184  0.64000  Biso   1.000  O 
  O1670    1.0000 0.63293  0.04588  0.64000  Biso   1.000  O 
  O1671    1.0000 0.64507  0.05398  0.64000  Biso   1.000  O 
  O1672    1.0000 0.68556  0.02969  0.64000  Biso   1.000  O 
  O1673    1.0000 0.61673  0.00945  0.64000  Biso   1.000  O 
  O1674    1.0000 0.62888  0.01754  0.64000  Biso   1.000  O 
  O1675    1.0000 0.67746  0.04993  0.64000  Biso   1.000  O 
  O1676    1.0000 0.68961  0.05803  0.64000  Biso   1.000  O 
  O1677    1.0000 0.62078  0.03779  0.64000  Biso   1.000  O 
  O1678    1.0000 0.65722  0.06208  0.64000  Biso   1.000  O 
  O1679    1.0000 0.66937  0.07018  0.64000  Biso   1.000  O 
  O1680    1.0000 0.64912  0.00540  0.64000  Biso   1.000  O 
  O1681    1.0000 0.65317  0.11066  0.64000  Biso   1.000  O 
  O1682    1.0000 0.66127  0.09042  0.64000  Biso   1.000  O 
  O1683    1.0000 0.67341  0.09852  0.64000  Biso   1.000  O 
  O1684    1.0000 0.64103  0.10256  0.64000  Biso   1.000  O 
  O1685    1.0000 0.66532  0.11876  0.64000  Biso   1.000  O 
  O1686    1.0000 0.63293  0.12281  0.64000  Biso   1.000  O 
  O1687    1.0000 0.64507  0.13090  0.64000  Biso   1.000  O 
  O1688    1.0000 0.68556  0.10661  0.64000  Biso   1.000  O 
  O1689    1.0000 0.61673  0.08637  0.64000  Biso   1.000  O 
  O1690    1.0000 0.62888  0.09447  0.64000  Biso   1.000  O 
  O1691    1.0000 0.67746  0.12686  0.64000  Biso   1.000  O 
  O1692    1.0000 0.68961  0.13495  0.64000  Biso   1.000  O 
  O1693    1.0000 0.62078  0.11471  0.64000  Biso   1.000  O 
  O1694    1.0000 0.65722  0.13900  0.64000  Biso   1.000  O 
  O1695    1.0000 0.66937  0.14710  0.64000  Biso   1.000  O 
  O1696    1.0000 0.64912  0.08232  0.64000  Biso   1.000  O 
  O1697    1.0000 0.65317  0.18758  0.64000  Biso   1.000  O 
  O1698    1.0000 0.66127  0.16734  0.64000  Biso   1.000  O 
  O1699    1.0000 0.67341  0.17544  0.64000  Biso   1.000  O 
  O1700    1.0000 0.64103  0.17949  0.64000  Biso   1.000  O 
  O1701    1.0000 0.66532  0.19568  0.64000  Biso   1.000  O 
  O1702    1.0000 0.63293  0.19973  0.64000  Biso   1.000  O 
  O1703    1.0000 0.64507  0.20783  0.64000  Biso   1.000  O 
  O1704    1.0000 0.68556  0.18354  0.64000  Biso   1.000  O 
  O1705    1.0000 0.61673  0.16329  0.64000  Biso   1.000  O 
  O1706    1.0000 0.62888  0.17139  0.64000  Biso   1.000  O 
  O1707    1.0000 0.67746  0.20378  0.64000  Biso   1.000  O 
  O1708    1.0000 0.68961  0.21188  0.64000  Biso   1.000  O 
  O1709    1.0000 0.62078  0.19163  0.64000  Biso   1.000  O 
  O1710    1.0000 0.65722  0.21592  0.64000  Biso   1.000  O 
  O1711    1.0000 0.66937  0.22402  0.64000  Biso   1.000  O 
  O1712    1.0000 0.64912  0.15924  0.64000  Biso   1.000  O 
  O1713    1.0000 0.65317  0.26451  0.64000  Biso   1.000  O 
  O1714    1.0000 0.66127  0.24426  0.64000  Biso   1.000  O 
  O1715    1.0000 0.67341  0.25236  0.64000  Biso   1.000  O 
  O1716    1.0000 0.64103  0.25641  0.64000  Biso   1.000  O 
  O1717    1.0000 0.66532  0.27260  0.64000  Biso   1.000  O 
  O1718    1.0000 0.63293  0.27665  0.64000  Biso   1.000  O 
  O1719    1.0000 0.64507  0.28475  0.64000  Biso   1.000  O 
  O1720    1.0000 0.68556  0.26046  0.64000  Biso   1.000  O 
  O1721    1.0000 0.61673  0.24022  0.64000  Biso   1.000  O 
  O1722    1.0000 0.62888  0.24831  0.64000  Biso   1.000  O 
  O1723    1.0000 0.67746  0.28070  0.64000  Biso   1.000  O 
  O1724    1.0000 0.68961  0.28880  0.64000  Biso   1.000  O 
  O1725    1.0000 0.62078  0.26856  0.64000  Biso   1.000  O 
  O1726    1.0000 0.65722  0.29285  0.64000  Biso   1.000  O 
  O1727    1.0000 0.66937  0.30094  0.64000  Biso   1.000  O 
  O1728    1.0000 0.64912  0.23617  0.64000  Biso   1.000  O 
  O1729    1.0000 0.65317  0.34143  0.64000  Biso   1.000  O 
  O1730    1.0000 0.66127  0.32119  0.64000  Biso   1.000  O 
  O1731    1.0000 0.67341  0.32928  0.64000  Biso   1.000  O 
  O1732    1.0000 0.64103  0.33333  0.64000  Biso   1.000  O 
  O1733    1.0000 0.66532  0.34953  0.64000  Biso   1.000  O 
  O1734    1.0000 0.63293  0.35358  0.64000  Biso   1.000  O 
  O1735    1.0000 0.64507  0.36167  0.64000  Biso   1.000  O 
  O1736    1.0000 0.68556  0.33738  0.64000  Biso   1.000  O 
  O1737    1.0000 0.61673  0.31714  0.64000  Biso   1.000  O 
  O1738    1.0000 0.62888  0.32524  0.64000  Biso   1.000  O 
  O1739    1.0000 0.67746  0.35762  0.64000  Biso   1.000  O 
  O1740    1.0000 0.68961  0.36572  0.64000  Biso   1.000  O 
  O1741    1.0000 0.62078  0.34548  0.64000  Biso   1.000  O 
  O1742    1.0000 0.65722  0.36977  0.64000  Biso   1.000  O 
  O1743    1.0000 0.66937  0.37787  0.64000  Biso   1.000  O 
  O1744    1.0000 0.64912  0.31309  0.64000  Biso   1.000  O 
  O1745    1.0000 0.65317  0.41835  0.64000  Biso   1.000  O 
  O1746    1.0000 0.66127  0.39811  0.64000  Biso   1.000  O 
  O1747    1.0000 0.67341  0.40621  0.64000  Biso   1.000  O 
  O1748    1.0000 0.64103  0.41026  0.64000  Biso   1.000  O 
  O1749    1.0000 0.66532  0.42645  0.64000  Biso   1.000  O 
  O1750    1.0000 0.63293  0.43050  0.64000  Biso   1.000  O 
  O1751    1.0000 0.64507  0.43860  0.64000  Biso   1.000  O 
  O1752    1.0000 0.68556  0.41430  0.64000  Biso   1.000  O 
  O1753    1.0000 0.61673  0.39406  0.64000  Biso   1.000  O 
  O1754    1.0000 0.62888  0.40216  0.64000  Biso   1.000  O 
  O1755    1.0000 0.67746  0.43455  0.64000  Biso   1.000  O 
  O1756    1.0000 0.68961  0.44265  0.64000  Biso   1.000  O 
  O1757    1.0000 0.62078  0.42240  0.64000  Biso   1.000  O 
  O1758    1.0000 0.65722  0.44669  0.64000  Biso   1.000  O 
  O1759    1.0000 0.66937  0.45479  0.64000  Biso   1.000  O 
  O1760    1.0000 0.64912  0.39001  0.64000  Biso   1.000  O 
  O1761    1.0000 0.65317  0.49528  0.64000  Biso   1.000  O 
  O1762    1.0000 0.66127  0.47503  0.64000  Biso   1.000  O 
  O1763    1.0000 0.67341  0.48313  0.64000  Biso   1.000  O 
  O1764    1.0000 0.64103  0.48718  0.64000  Biso   1.000  O 
  O1765    1.0000 0.66532  0.50337  0.64000  Biso   1.000  O 
  O1766    1.0000 0.63293  0.50742  0.64000  Biso   1.000  O 
  O1767    1.0000 0.64507  0.51552  0.64000  Biso   1.000  O 
  O1768    1.0000 0.68556  0.49123  0.64000  Biso   1.000  O 
  O1769    1.0000 0.61673  0.47099  0.64000  Biso   1.000  O 
  O1770    1.0000 0.62888  0.47908  0.64000  Biso   1.000  O 
  O1771    1.0000 0.67746  0.51147  0.64000  Biso   1.000  O 
  O1772    1.0000 0.68961  0.51957  0.64000  Biso   1.000  O 
  O1773    1.0000 0.62078  0.49933  0.64000  Biso   1.000  O 
  O1774    1.0000 0.65722  0.52362  0.64000  Biso   1.000  O 
  O1775    1.0000 0.66937  0.53171  0.64000  Biso   1.000  O 
  O1776    1.0000 0.64912  0.46694  0.64000  Biso   1.000  O 
  O1777    1.0000 0.65317  0.57220  0.64000  Biso   1.000  O 
  O1778    1.0000 0.66127  0.55196  0.64000  Biso   1.000  O 
  O1779    1.0000 0.67341  0.56005  0.64000  Biso   1.000  O 
  O1780    1.0000 0.64103  0.56410  0.64000  Biso   1.000  O 
  O1781    1.0000 0.66532  0.58030  0.64000  Biso   1.000  O 
  O1782    1.0000 0.63293  0.58435  0.64000  Biso   1.000  O 
  O1783    1.0000 0.64507  0.59244  0.64000  Biso   1.000  O 
  O1784    1.0000 0.68556  0.56815  0.64000  Biso   1.000  O 
  O1785    1.0000 0.61673  0.54791  0.64000  Biso   1.000  O 
  O1786    1.0000 0.62888  0.55601  0.64000  Biso   1.000  O 
  O1787    1.0000 0.67746  0.58839  0.64000  Biso   1.000  O 
  O1788    1.0000 0.68961  0.59649  0.64000  Biso   1.000  O 
  O1789    1.0000 0.62078  0.57625  0.64000  Biso   1.000  O 
  O1790    1.0000 0.65722  0.60054  0.64000  Biso   1.000  O 
  O1791    1.0000 0.66937  0.60864  0.64000  Biso   1.000  O 
  O1792    1.0000 0.64912  0.54386  0.64000  Biso   1.000  O 
  O1793    1.0000 0.65317  0.64912  0.64000  Biso   1.000  O 
  O1794    1.0000 0.66127  0.62888  0.64000  Biso   1.000  O 
  O1795    1.0000 0.67341  0.63698  0.64000  Biso   1.000  O 
  O1796    1.0000 0.64103  0.64103  0.64000  Biso   1.000  O 
  O1797    1.0000 0.66532  0.65722  0.64000  Biso   1.000  O 
  O1798    1.0000 0.63293  0.66127  0.64000  Biso   1.000  O 
  O1799    1.0000 0.64507  0.66937  0.64000  Biso   1.000  O 
  O1800    1.0000 0.68556  0.64507  0.64000  Biso   1.000  O 
  O1801    1.0000 0.61673  0.62483  0.64000  Biso   1.000  O 
  O1802    1.0000 0.62888  0.63293  0.64000  Biso   1.000  O 
  O1803    1.0000 0.67746  0.66532  0.64000  Biso   1.000  O 
  O1804    1.0000 0.68961  0.67341  0.64000  Biso   1.000  O 
  O1805    1.0000 0.62078  0.65317  0.64000  Biso   1.000  O 
  O1806    1.0000 0.65722  0.67746  0.64000  Biso   1.000  O 
  O1807    1.0000 0.66937  0.68556  0.64000  Biso   1.000  O 
  O1808    1.0000 0.64912  0.62078  0.64000  Biso   1.000  O 
  O1809    1.0000 0.65317  0.72605  0.64000  Biso   1.000  O 
  O1810    1.0000 0.66127  0.70580  0.64000  Biso   1.000  O 
  O1811    1.0000 0.67341  0.71390  0.64000  Biso   1.000  O 
  O1812    1.0000 0.64103  0.71795  0.64000  Biso   1.000  O 
  O1813    1.0000 0.66532  0.73414  0.64000  Biso   1.000  O 
  O1814    1.0000 0.63293  0.73819  0.64000  Biso   1.000  O 
  O1815    1.0000 0.64507  0.74629  0.64000  Biso   1.000  O 
  O1816    1.0000 0.68556  0.72200  0.64000  Biso   1.000  O 
  O1817    1.0000 0.61673  0.70175  0.64000  Biso   1.000  O 
  O1818    1.0000 0.62888  0.70985  0.64000  Biso   1.000  O 
  O1819    1.0000 0.67746  0.74224  0.64000  Biso   1.000  O 
  O1820    1.0000 0.68961  0.75034  0.64000  Biso   1.000  O 
  O1821    1.0000 0.62078  0.73009  0.64000  Biso   1.000  O 
  O1822    1.0000 0.65722  0.75439  0.64000  Biso   1.000  O 
  O1823    1.0000 0.66937  0.76248  0.64000  Biso   1.000  O 
  O1824    1.0000 0.64912  0.69771  0.64000  Biso   1.000  O 
  O1825    1.0000 0.65317  0.80297  0.64000  Biso   1.000  O 
  O1826    1.0000 0.66127  0.78273  0.64000  Biso   1.000  O 
  O1827    1.0000 0.67341  0.79082  0.64000  Biso   1.000  O 
  O1828    1.0000 0.64103  0.79487  0.64000  Biso   1.000  O 
  O1829    1.0000 0.66532  0.81107  0.64000  Biso   1.000  O 
  O1830    1.0000 0.63293  0.81511  0.64000  Biso   1.000  O 
  O1831    1.0000 0.64507  0.82321  0.64000  Biso   1.000  O 
  O1832    1.0000 0.68556  0.79892  0.64000  Biso   1.000  O 
  O1833    1.0000 0.61673  0.77868  0.64000  Biso   1.000  O 
  O1834    1.0000 0.62888  0.78677  0.64000  Biso   1.000  O 
  O1835    1.0000 0.67746  0.81916  0.64000  Biso   1.000  O 
  O1836    1.0000 0.68961  0.82726  0.64000  Biso   1.000  O 
  O1837    1.0000 0.62078  0.80702  0.64000  Biso   1.000  O 
  O1838    1.0000 0.65722  0.83131  0.64000  Biso   1.000  O 
  O1839    1.0000 0.66937  0.83941  0.64000  Biso   1.000  O 
  O1840    1.0000 0.64912  0.77463  0.64000  Biso   1.000  O 
  O1841    1.0000 0.65317  0.87989  0.64000  Biso   1.000  O 
  O1842    1.0000 0.66127  0.85965  0.64000  Biso   1.000  O 
  O1843    1.0000 0.67341  0.86775  0.64000  Biso   1.000  O 
  O1844    1.0000 0.64103  0.87179  0.64000  Biso   1.000  O 
  O1845    1.0000 0.66532  0.88799  0.64000  Biso   1.000  O 
  O1846    1.0000 0.63293  0.89204  0.64000  Biso   1.000  O 
  O1847    1.0000 0.64507  0.90013  0.64000  Biso   1.000  O 
  O1848    1.0000 0.68556  0.87584  0.64000  Biso   1.000  O 
  O1849    1.0000 0.61673  0.85560  0.64000  Biso   1.000  O 
  O1850    1.0000 0.62888  0.86370  0.64000  Biso   1.000  O 
  O1851    1.0000 0.67746  0.89609  0.64000  Biso   1.000  O 
  O1852    1.0000 0.68961  0.90418  0.64000  Biso   1.000  O 
  O1853    1.0000 0.62078  0.88394  0.64000  Biso   1.000  O 
  O1854    1.0000 0.65722  0.90823  0.64000  Biso   1.000  O 
  O1855    1.0000 0.66937  0.91633  0.64000  Biso   1.000  O 
  O1856    1.0000 0.64912  0.85155  0.64000  Biso   1.000  O 
  O1857    1.0000 0.65317  0.95682  0.64000  Biso   1.000  O 
  O1858    1.0000 0.66127  0.93657  0.64000  Biso   1.000  O 
  O1859    1.0000 0.67341  0.94467  0.64000  Biso   1.000  O 
  O1860    1.0000 0.64103  0.94872  0.64000  Biso   1.000  O 
  O1861    1.0000 0.66532  0.96491  0.64000  Biso   1.000  O 
  O1862    1.0000 0.63293  0.96896  0.64000  Biso   1.000  O 
  O1863    1.0000 0.64507  0.97706  0.64000  Biso   1.000  O 
  O1864    1.0000 0.68556  0.95277  0.64000  Biso   1.000  O 
  O1865    1.0000 0.61673  0.93252  0.64000  Biso   1.000  O 
  O1866    1.0000 0.62888  0.94062  0.64000  Biso   1.000  O 
  O1867    1.0000 0.67746  0.97301  0.64000  Biso   1.000  O 
  O1868    1.0000 0.68961  0.98111  0.64000  Biso   1.000  O 
  O1869    1.0000 0.62078  0.96086  0.64000  Biso   1.000  O 
  O1870    1.0000 0.65722  0.98516  0.64000  Biso   1.000  O 
  O1871    1.0000 0.66937  0.99325  0.64000  Biso   1.000  O 
  O1872    1.0000 0.64912  0.92848  0.64000  Biso   1.000  O 
  O1873    1.0000 0.73009  0.03374  0.64000  Biso   1.000  O 
  O1874    1.0000 0.73819  0.01350  0.64000  Biso   1.000  O 
  O1875    1.0000 0.75034  0.02159  0.64000  Biso   1.000  O 
  O1876    1.0000 0.71795  0.02564  0.64000  Biso   1.000  O 
  O1877    1.0000 0.74224  0.04184  0.64000  Biso   1.000  O 
  O1878    1.0000 0.70985  0.04588  0.64000  Biso   1.000  O 
  O1879    1.0000 0.72200  0.05398  0.64000  Biso   1.000  O 
  O1880    1.0000 0.76248  0.02969  0.64000  Biso   1.000  O 
  O1881    1.0000 0.69366  0.00945  0.64000  Biso   1.000  O 
  O1882    1.0000 0.70580  0.01754  0.64000  Biso   1.000  O 
  O1883    1.0000 0.75439  0.04993  0.64000  Biso   1.000  O 
  O1884    1.0000 0.76653  0.05803  0.64000  Biso   1.000  O 
  O1885    1.0000 0.69771  0.03779  0.64000  Biso   1.000  O 
  O1886    1.0000 0.73414  0.06208  0.64000  Biso   1.000  O 
  O1887    1.0000 0.74629  0.07018  0.64000  Biso   1.000  O 
  O1888    1.0000 0.72605  0.00540  0.64000  Biso   1.000  O 
  O1889    1.0000 0.73009  0.11066  0.64000  Biso   1.000  O 
  O1890    1.0000 0.73819  0.09042  0.64000  Biso   1.000  O 
  O1891    1.0000 0.75034  0.09852  0.64000  Biso   1.000  O 
  O1892    1.0000 0.71795  0.10256  0.64000  Biso   1.000  O 
  O1893    1.0000 0.74224  0.11876  0.64000  Biso   1.000  O 
  O1894    1.0000 0.70985  0.12281  0.64000  Biso   1.000  O 
  O1895    1.0000 0.72200  0.13090  0.64000  Biso   1.000  O 
  O1896    1.0000 0.76248  0.10661  0.64000  Biso   1.000  O 
  O1897    1.0000 0.69366  0.08637  0.64000  Biso   1.000  O 
  O1898    1.0000 0.70580  0.09447  0.64000  Biso   1.000  O 
  O1899    1.0000 0.75439  0.12686  0.64000  Biso   1.000  O 
  O1900    1.0000 0.76653  0.13495  0.64000  Biso   1.000  O 
  O1901    1.0000 0.69771  0.11471  0.64000  Biso   1.000  O 
  O1902    1.0000 0.73414  0.13900  0.64000  Biso   1.000  O 
  O1903    1.0000 0.74629  0.14710  0.64000  Biso   1.000  O 
  O1904    1.0000 0.72605  0.08232  0.64000  Biso   1.000  O 
  O1905    1.0000 0.73009  0.18758  0.64000  Biso   1.000  O 
  O1906    1.0000 0.73819  0.16734  0.64000  Biso   1.000  O 
  O1907    1.0000 0.75034  0.17544  0.64000  Biso   1.000  O 
  O1908    1.0000 0.71795  0.17949  0.64000  Biso   1.000  O 
  O1909    1.0000 0.74224  0.19568  0.64000  Biso   1.000  O 
  O1910    1.0000 0.70985  0.19973  0.64000  Biso   1.000  O 
  O1911    1.0000 0.72200  0.20783  0.64000  Biso   1.000  O 
  O1912    1.0000 0.76248  0.18354  0.64000  Biso   1.000  O 
  O1913    1.0000 0.69366  0.16329  0.64000  Biso   1.000  O 
  O1914    1.0000 0.70580  0.17139  0.64000  Biso   1.000  O 
  O1915    1.0000 0.75439  0.20378  0.64000  Biso   1.000  O 
  O1916    1.0000 0.76653  0.21188  0.64000  Biso   1.000  O 
  O1917    1.0000 0.69771  0.19163  0.64000  Biso   1.000  O 
  O1918    1.0000 0.73414  0.21592  0.64000  Biso   1.000  O 
  O1919    1.0000 0.74629  0.22402  0.64000  Biso   1.000  O 
  O1920    1.0000 0.72605  0.15924  0.64000  Biso   1.000  O 
  O1921    1.0000 0.73009  0.26451  0.64000  Biso   1.000  O 
  O1922    1.0000 0.73819  0.24426  0.64000  Biso   1.000  O 
  O1923    1.0000 0.75034  0.25236  0.64000  Biso   1.000  O 
  O1924    1.0000 0.71795  0.25641  0.64000  Biso   1.000  O 
  O1925    1.0000 0.74224  0.27260  0.64000  Biso   1.000  O 
  O1926    1.0000 0.70985  0.27665  0.64000  Biso   1.000  O 
  O1927    1.0000 0.72200  0.28475  0.64000  Biso   1.000  O 
  O1928    1.0000 0.76248  0.26046  0.64000  Biso   1.000  O 
  O1929    1.0000 0.69366  0.24022  0.64000  Biso   1.000  O 
  O1930    1.0000 0.70580  0.24831  0.64000  Biso   1.000  O 
  O1931    1.0000 0.75439  0.28070  0.64000  Biso   1.000  O 
  O1932    1.0000 0.76653  0.28880  0.64000  Biso   1.000  O 
  O1933    1.0000 0.69771  0.26856  0.64000  Biso   1.000  O 
  O1934    1.0000 0.73414  0.29285  0.64000  Biso   1.000  O 
  O1935    1.0000 0.74629  0.30094  0.64000  Biso   1.000  O 
  O1936    1.0000 0.72605  0.23617  0.64000  Biso   1.000  O 
  O1937    1.0000 0.73009  0.34143  0.64000  Biso   1.000  O 
  O1938    1.0000 0.73819  0.32119  0.64000  Biso   1.000  O 
  O1939    1.0000 0.75034  0.32928  0.64000  Biso   1.000  O 
  O1940    1.0000 0.71795  0.33333  0.64000  Biso   1.000  O 
  O1941    1.0000 0.74224  0.34953  0.64000  Biso   1.000  O 
  O1942    1.0000 0.70985  0.35358  0.64000  Biso   1.000  O 
  O1943    1.0000 0.72200  0.36167  0.64000  Biso   1.000  O 
  O1944    1.0000 0.76248  0.33738  0.64000  Biso   1.000  O 
  O1945    1.0000 0.69366  0.31714  0.64000  Biso   1.000  O 
  O1946    1.0000 0.70580  0.32524  0.64000  Biso   1.000  O 
  O1947    1.0000 0.75439  0.35762  0.64000  Biso   1.000  O 
  O1948    1.0000 0.76653  0.36572  0.64000  Biso   1.000  O 
  O1949    1.0000 0.69771  0.34548  0.64000  Biso   1.000  O 
  O1950    1.0000 0.73414  0.36977  0.64000  Biso   1.000  O 
  O1951    1.0000 0.74629  0.37787  0.64000  Biso   1.000  O 
  O1952    1.0000 0.72605  0.31309  0.64000  Biso   1.000  O 
  O1953    1.0000 0.73009  0.41835  0.64000  Biso   1.000  O 
  O1954    1.0000 0.73819  0.39811  0.64000  Biso   1.000  O 
  O1955    1.0000 0.75034  0.40621  0.64000  Biso   1.000  O 
  O1956    1.0000 0.71795  0.41026  0.64000  Biso   1.000  O 
  O1957    1.0000 0.74224  0.42645  0.64000  Biso   1.000  O 
  O1958    1.0000 0.70985  0.43050  0.64000  Biso   1.000  O 
  O1959    1.0000 0.72200  0.43860  0.64000  Biso   1.000  O 
  O1960    1.0000 0.76248  0.41430  0.64000  Biso   1.000  O 
  O1961    1.0000 0.69366  0.39406  0.64000  Biso   1.000  O 
  O1962    1.0000 0.70580  0.40216  0.64000  Biso   1.000  O 
  O1963    1.0000 0.75439  0.43455  0.64000  Biso   1.000  O 
  O1964    1.0000 0.76653  0.44265  0.64000  Biso   1.000  O 
  O1965    1.0000 0.69771  0.42240  0.64000  Biso   1.000  O 
  O1966    1.0000 0.73414  0.44669  0.64000  Biso   1.000  O 
  O1967    1.0000 0.74629  0.45479  0.64000  Biso   1.000  O 
  O1968    1.0000 0.72605  0.39001  0.64000  Biso   1.000  O 
  O1969    1.0000 0.73009  0.49528  0.64000  Biso   1.000  O 
  O1970    1.0000 0.73819  0.47503  0.64000  Biso   1.000  O 
  O1971    1.0000 0.75034  0.48313  0.64000  Biso   1.000  O 
  O1972    1.0000 0.71795  0.48718  0.64000  Biso   1.000  O 
  O1973    1.0000 0.74224  0.50337  0.64000  Biso   1.000  O 
  O1974    1.0000 0.70985  0.50742  0.64000  Biso   1.000  O 
  O1975    1.0000 0.72200  0.51552  0.64000  Biso   1.000  O 
  O1976    1.0000 0.76248  0.49123  0.64000  Biso   1.000  O 
  O1977    1.0000 0.69366  0.47099  0.64000  Biso   1.000  O 
  O1978    1.0000 0.70580  0.47908  0.64000  Biso   1.000  O 
  O1979    1.0000 0.75439  0.51147  0.64000  Biso   1.000  O 
  O1980    1.0000 0.76653  0.51957  0.64000  Biso   1.000  O 
  O1981    1.0000 0.69771  0.49933  0.64000  Biso   1.000  O 
  O1982    1.0000 0.73414  0.52362  0.64000  Biso   1.000  O 
  O1983    1.0000 0.74629  0.53171  0.64000  Biso   1.000  O 
  O1984    1.0000 0.72605  0.46694  0.64000  Biso   1.000  O 
  O1985    1.0000 0.73009  0.57220  0.64000  Biso   1.000  O 
  O1986    1.0000 0.73819  0.55196  0.64000  Biso   1.000  O 
  O1987    1.0000 0.75034  0.56005  0.64000  Biso   1.000  O 
  O1988    1.0000 0.71795  0.56410  0.64000  Biso   1.000  O 
  O1989    1.0000 0.74224  0.58030  0.64000  Biso   1.000  O 
  O1990    1.0000 0.70985  0.58435  0.64000  Biso   1.000  O 
  O1991    1.0000 0.72200  0.59244  0.64000  Biso   1.000  O 
  O1992    1.0000 0.76248  0.56815  0.64000  Biso   1.000  O 
  O1993    1.0000 0.69366  0.54791  0.64000  Biso   1.000  O 
  O1994    1.0000 0.70580  0.55601  0.64000  Biso   1.000  O 
  O1995    1.0000 0.75439  0.58839  0.64000  Biso   1.000  O 
  O1996    1.0000 0.76653  0.59649  0.64000  Biso   1.000  O 
  O1997    1.0000 0.69771  0.57625  0.64000  Biso   1.000  O 
  O1998    1.0000 0.73414  0.60054  0.64000  Biso   1.000  O 
  O1999    1.0000 0.74629  0.60864  0.64000  Biso   1.000  O 
  O2000    1.0000 0.72605  0.54386  0.64000  Biso   1.000  O 
  O2001    1.0000 0.73009  0.64912  0.64000  Biso   1.000  O 
  O2002    1.0000 0.73819  0.62888  0.64000  Biso   1.000  O 
  O2003    1.0000 0.75034  0.63698  0.64000  Biso   1.000  O 
  O2004    1.0000 0.71795  0.64103  0.64000  Biso   1.000  O 
  O2005    1.0000 0.74224  0.65722  0.64000  Biso   1.000  O 
  O2006    1.0000 0.70985  0.66127  0.64000  Biso   1.000  O 
  O2007    1.0000 0.72200  0.66937  0.64000  Biso   1.000  O 
  O2008    1.0000 0.76248  0.64507  0.64000  Biso   1.000  O 
  O2009    1.0000 0.69366  0.62483  0.64000  Biso   1.000  O 
  O2010    1.0000 0.70580  0.63293  0.64000  Biso   1.000  O 
  O2011    1.0000 0.75439  0.66532  0.64000  Biso   1.000  O 
  O2012    1.0000 0.76653  0.67341  0.64000  Biso   1.000  O 
  O2013    1.0000 0.69771  0.65317  0.64000  Biso   1.000  O 
  O2014    1.0000 0.73414  0.67746  0.64000  Biso   1.000  O 
  O2015    1.0000 0.74629  0.68556  0.64000  Biso   1.000  O 
  O2016    1.0000 0.72605  0.62078  0.64000  Biso   1.000  O 
  O2017    1.0000 0.73009  0.72605  0.64000  Biso   1.000  O 
  O2018    1.0000 0.73819  0.70580  0.64000  Biso   1.000  O 
  O2019    1.0000 0.75034  0.71390  0.64000  Biso   1.000  O 
  O2020    1.0000 0.71795  0.71795  0.64000  Biso   1.000  O 
  O2021    1.0000 0.74224  0.73414  0.64000  Biso   1.000  O 
  O2022    1.0000 0.70985  0.73819  0.64000  Biso   1.000  O 
  O2023    1.0000 0.72200  0.74629  0.64000  Biso   1.000  O 
  O2024    1.0000 0.76248  0.72200  0.64000  Biso   1.000  O 
  O2025    1.0000 0.69366  0.70175  0.64000  Biso   1.000  O 
  O2026    1.0000 0.70580  0.70985  0.64000  Biso   1.000  O 
  O2027    1.0000 0.75439  0.74224  0.64000  Biso   1.000  O 
  O2028    1.0000 0.76653  0.75034  0.64000  Biso   1.000  O 
  O2029    1.0000 0.69771  0.73009  0.64000  Biso   1.000  O 
  O2030    1.0000 0.73414  0.75439  0.64000  Biso   1.000  O 
  O2031    1.0000 0.74629  0.76248  0.64000  Biso   1.000  O 
  O2032    1.0000 0.72605  0.69771  0.64000  Biso   1.000  O 
  O2033    1.0000 0.73009  0.80297  0.64000  Biso   1.000  O 
  O2034    1.0000 0.73819  0.78273  0.64000  Biso   1.000  O 
  O2035    1.0000 0.75034  0.79082  0.64000  Biso   1.000  O 
  O2036    1.0000 0.71795  0.79487  0.64000  Biso   1.000  O 
  O2037    1.0000 0.74224  0.81107  0.64000  Biso   1.000  O 
  O2038    1.0000 0.70985  0.81511  0.64000  Biso   1.000  O 
  O2039    1.0000 0.72200  0.82321  0.64000  Biso   1.000  O 
  O2040    1.0000 0.76248  0.79892  0.64000  Biso   1.000  O 
  O2041    1.0000 0.69366  0.77868  0.64000  Biso   1.000  O 
  O2042    1.0000 0.70580  0.78677  0.64000  Biso   1.000  O 
  O2043    1.0000 0.75439  0.81916  0.64000  Biso   1.000  O 
  O2044    1.0000 0.76653  0.82726  0.64000  Biso   1.000  O 
  O2045    1.0000 0.69771  0.80702  0.64000  Biso   1.000  O 
  O2046    1.0000 0.73414  0.83131  0.64000  Biso   1.000  O 
  O2047    1.0000 0.74629  0.83941  0.64000  Biso   1.000  O 
  O2048    1.0000 0.72605  0.77463  0.64000  Biso   1.000  O 
  O2049    1.0000 0.73009  0.87989  0.64000  Biso   1.000  O 
  O2050    1.0000 0.73819  0.85965  0.64000  Biso   1.000  O 
  O2051    1.0000 0.75034  0.86775  0.64000  Biso   1.000  O 
  O2052    1.0000 0.71795  0.87179  0.64000  Biso   1.000  O 
  O2053    1.0000 0.74224  0.88799  0.64000  Biso   1.000  O 
  O2054    1.0000 0.70985  0.89204  0.64000  Biso   1.000  O 
  O2055    1.0000 0.72200  0.90013  0.64000  Biso   1.000  O 
  O2056    1.0000 0.76248  0.87584  0.64000  Biso   1.000  O 
  O2057    1.0000 0.69366  0.85560  0.64000  Biso   1.000  O 
  O2058    1.0000 0.70580  0.86370  0.64000  Biso   1.000  O 
  O2059    1.0000 0.75439  0.89609  0.64000  Biso   1.000  O 
  O2060    1.0000 0.76653  0.90418  0.64000  Biso   1.000  O 
  O2061    1.0000 0.69771  0.88394  0.64000  Biso   1.000  O 
  O2062    1.0000 0.73414  0.90823  0.64000  Biso   1.000  O 
  O2063    1.0000 0.74629  0.91633  0.64000  Biso   1.000  O 
  O2064    1.0000 0.72605  0.85155  0.64000  Biso   1.000  O 
  O2065    1.0000 0.73009  0.95682  0.64000  Biso   1.000  O 
  O2066    1.0000 0.73819  0.93657  0.64000  Biso   1.000  O 
  O2067    1.0000 0.75034  0.94467  0.64000  Biso   1.000  O 
  O2068    1.0000 0.71795  0.94872  0.64000  Biso   1.000  O 
  O2069    1.0000 0.74224  0.96491  0.64000  Biso   1.000  O 
  O2070    1.0000 0.70985  0.96896  0.64000  Biso   1.000  O 
  O2071    1.0000 0.72200  0.97706  0.64000  Biso   1.000  O 
  O2072    1.0000 0.76248  0.95277  0.64000  Biso   1.000  O 
  O2073    1.0000 0.69366  0.93252  0.64000  Biso   1.000  O 
  O2074    1.0000 0.70580  0.94062  0.64000  Biso   1.000  O 
  O2075    1.0000 0.75439  0.97301  0.64000  Biso   1.000  O 
  O2076    1.0000 0.76653  0.98111  0.64000  Biso   1.000  O 
  O2077    1.0000 0.69771  0.96086  0.64000  Biso   1.000  O 
  O2078    1.0000 0.73414  0.98516  0.64000  Biso   1.000  O 
  O2079    1.0000 0.74629  0.99325  0.64000  Biso   1.000  O 
  O2080    1.0000 0.72605  0.92848  0.64000  Biso   1.000  O 
  O2081    1.0000 0.80702  0.03374  0.64000  Biso   1.000  O 
  O2082    1.0000 0.81511  0.01350  0.64000  Biso   1.000  O 
  O2083    1.0000 0.82726  0.02159  0.64000  Biso   1.000  O 
  O2084    1.0000 0.79487  0.02564  0.64000  Biso   1.000  O 
  O2085    1.0000 0.81916  0.04184  0.64000  Biso   1.000  O 
  O2086    1.0000 0.78677  0.04588  0.64000  Biso   1.000  O 
  O2087    1.0000 0.79892  0.05398  0.64000  Biso   1.000  O 
  O2088    1.0000 0.83941  0.02969  0.64000  Biso   1.000  O 
  O2089    1.0000 0.77058  0.00945  0.64000  Biso   1.000  O 
  O2090    1.0000 0.78273  0.01754  0.64000  Biso   1.000  O 
  O2091    1.0000 0.83131  0.04993  0.64000  Biso   1.000  O 
  O2092    1.0000 0.84345  0.05803  0.64000  Biso   1.000  O 
  O2093    1.0000 0.77463  0.03779  0.64000  Biso   1.000  O 
  O2094    1.0000 0.81107  0.06208  0.64000  Biso   1.000  O 
  O2095    1.0000 0.82321  0.07018  0.64000  Biso   1.000  O 
  O2096    1.0000 0.80297  0.00540  0.64000  Biso   1.000  O 
  O2097    1.0000 0.80702  0.11066  0.64000  Biso   1.000  O 
  O2098    1.0000 0.81511  0.09042  0.64000  Biso   1.000  O 
  O2099    1.0000 0.82726  0.09852  0.64000  Biso   1.000  O 
  O2100    1.0000 0.79487  0.10256  0.64000  Biso   1.000  O 
  O2101    1.0000 0.81916  0.11876  0.64000  Biso   1.000  O 
  O2102    1.0000 0.78677  0.12281  0.64000  Biso   1.000  O 
  O2103    1.0000 0.79892  0.13090  0.64000  Biso   1.000  O 
  O2104    1.0000 0.83941  0.10661  0.64000  Biso   1.000  O 
  O2105    1.0000 0.77058  0.08637  0.64000  Biso   1.000  O 
  O2106    1.0000 0.78273  0.09447  0.64000  Biso   1.000  O 
  O2107    1.0000 0.83131  0.12686  0.64000  Biso   1.000  O 
  O2108    1.0000 0.84345  0.13495  0.64000  Biso   1.000  O 
  O2109    1.0000 0.77463  0.11471  0.64000  Biso   1.000  O 
  O2110    1.0000 0.81107  0.13900  0.64000  Biso   1.000  O 
  O2111    1.0000 0.82321  0.14710  0.64000  Biso   1.000  O 
  O2112    1.0000 0.80297  0.08232  0.64000  Biso   1.000  O 
  O2113    1.0000 0.80702  0.18758  0.64000  Biso   1.000  O 
  O2114    1.0000 0.81511  0.16734  0.64000  Biso   1.000  O 
  O2115    1.0000 0.82726  0.17544  0.64000  Biso   1.000  O 
  O2116    1.0000 0.79487  0.17949  0.64000  Biso   1.000  O 
  O2117    1.0000 0.81916  0.19568  0.64000  Biso   1.000  O 
  O2118    1.0000 0.78677  0.19973  0.64000  Biso   1.000  O 
  O2119    1.0000 0.79892  0.20783  0.64000  Biso   1.000  O 
  O2120    1.0000 0.83941  0.18354  0.64000  Biso   1.000  O 
  O2121    1.0000 0.77058  0.16329  0.64000  Biso   1.000  O 
  O2122    1.0000 0.78273  0.17139  0.64000  Biso   1.000  O 
  O2123    1.0000 0.83131  0.20378  0.64000  Biso   1.000  O 
  O2124    1.0000 0.84345  0.21188  0.64000  Biso   1.000  O 
  O2125    1.0000 0.77463  0.19163  0.64000  Biso   1.000  O 
  O2126    1.0000 0.81107  0.21592  0.64000  Biso   1.000  O 
  O2127    1.0000 0.82321  0.22402  0.64000  Biso   1.000  O 
  O2128    1.0000 0.80297  0.15924  0.64000  Biso   1.000  O 
  O2129    1.0000 0.80702  0.26451  0.64000  Biso   1.000  O 
  O2130    1.0000 0.81511  0.24426  0.64000  Biso   1.000  O 
  O2131    1.0000 0.82726  0.25236  0.64000  Biso   1.000  O 
  O2132    1.0000 0.79487  0.25641  0.64000  Biso   1.000  O 
  O2133    1.0000 0.81916  0.27260  0.64000  Biso   1.000  O 
  O2134    1.0000 0.78677  0.27665  0.64000  Biso   1.000  O 
  O2135    1.0000 0.79892  0.28475  0.64000  Biso   1.000  O 
  O2136    1.0000 0.83941  0.26046  0.64000  Biso   1.000  O 
  O2137    1.0000 0.77058  0.24022  0.64000  Biso   1.000  O 
  O2138    1.0000 0.78273  0.24831  0.64000  Biso   1.000  O 
  O2139    1.0000 0.83131  0.28070  0.64000  Biso   1.000  O 
  O2140    1.0000 0.84345  0.28880  0.64000  Biso   1.000  O 
  O2141    1.0000 0.77463  0.26856  0.64000  Biso   1.000  O 
  O2142    1.0000 0.81107  0.29285  0.64000  Biso   1.000  O 
  O2143    1.0000 0.82321  0.30094  0.64000  Biso   1.000  O 
  O2144    1.0000 0.80297  0.23617  0.64000  Biso   1.000  O 
  O2145    1.0000 0.80702  0.34143  0.64000  Biso   1.000  O 
  O2146    1.0000 0.81511  0.32119  0.64000  Biso   1.000  O 
  O2147    1.0000 0.82726  0.32928  0.64000  Biso   1.000  O 
  O2148    1.0000 0.79487  0.33333  0.64000  Biso   1.000  O 
  O2149    1.0000 0.81916  0.34953  0.64000  Biso   1.000  O 
  O2150    1.0000 0.78677  0.35358  0.64000  Biso   1.000  O 
  O2151    1.0000 0.79892  0.36167  0.64000  Biso   1.000  O 
  O2152    1.0000 0.83941  0.33738  0.64000  Biso   1.000  O 
  O2153    1.0000 0.77058  0.31714  0.64000  Biso   1.000  O 
  O2154    1.0000 0.78273  0.32524  0.64000  Biso   1.000  O 
  O2155    1.0000 0.83131  0.35762  0.64000  Biso   1.000  O 
  O2156    1.0000 0.84345  0.36572  0.64000  Biso   1.000  O 
  O2157    1.0000 0.77463  0.34548  0.64000  Biso   1.000  O 
  O2158    1.0000 0.81107  0.36977  0.64000  Biso   1.000  O 
  O2159    1.0000 0.82321  0.37787  0.64000  Biso   1.000  O 
  O2160    1.0000 0.80297  0.31309  0.64000  Biso   1.000  O 
  O2161    1.0000 0.80702  0.41835  0.64000  Biso   1.000  O 
  O2162    1.0000 0.81511  0.39811  0.64000  Biso   1.000  O 
  O2163    1.0000 0.82726  0.40621  0.64000  Biso   1.000  O 
  O2164    1.0000 0.79487  0.41026  0.64000  Biso   1.000  O 
  O2165    1.0000 0.81916  0.42645  0.64000  Biso   1.000  O 
  O2166    1.0000 0.78677  0.43050  0.64000  Biso   1.000  O 
  O2167    1.0000 0.79892  0.43860  0.64000  Biso   1.000  O 
  O2168    1.0000 0.83941  0.41430  0.64000  Biso   1.000  O 
  O2169    1.0000 0.77058  0.39406  0.64000  Biso   1.000  O 
  O2170    1.0000 0.78273  0.40216  0.64000  Biso   1.000  O 
  O2171    1.0000 0.83131  0.43455  0.64000  Biso   1.000  O 
  O2172    1.0000 0.84345  0.44265  0.64000  Biso   1.000  O 
  O2173    1.0000 0.77463  0.42240  0.64000  Biso   1.000  O 
  O2174    1.0000 0.81107  0.44669  0.64000  Biso   1.000  O 
  O2175    1.0000 0.82321  0.45479  0.64000  Biso   1.000  O 
  O2176    1.0000 0.80297  0.39001  0.64000  Biso   1.000  O 
  O2177    1.0000 0.80702  0.49528  0.64000  Biso   1.000  O 
  O2178    1.0000 0.81511  0.47503  0.64000  Biso   1.000  O 
  O2179    1.0000 0.82726  0.48313  0.64000  Biso   1.000  O 
  O2180    1.0000 0.79487  0.48718  0.64000  Biso   1.000  O 
  O2181    1.0000 0.81916  0.50337  0.64000  Biso   1.000  O 
  O2182    1.0000 0.78677  0.50742  0.64000  Biso   1.000  O 
  O2183    1.0000 0.79892  0.51552  0.64000  Biso   1.000  O 
  O2184    1.0000 0.83941  0.49123  0.64000  Biso   1.000  O 
  O2185    1.0000 0.77058  0.47099  0.64000  Biso   1.000  O 
  O2186    1.0000 0.78273  0.47908  0.64000  Biso   1.000  O 
  O2187    1.0000 0.83131  0.51147  0.64000  Biso   1.000  O 
  O2188    1.0000 0.84345  0.51957  0.64000  Biso   1.000  O 
  O2189    1.0000 0.77463  0.49933  0.64000  Biso   1.000  O 
  O2190    1.0000 0.81107  0.52362  0.64000  Biso   1.000  O 
  O2191    1.0000 0.82321  0.53171  0.64000  Biso   1.000  O 
  O2192    1.0000 0.80297  0.46694  0.64000  Biso   1.000  O 
  O2193    1.0000 0.80702  0.57220  0.64000  Biso   1.000  O 
  O2194    1.0000 0.81511  0.55196  0.64000  Biso   1.000  O 
  O2195    1.0000 0.82726  0.56005  0.64000  Biso   1.000  O 
  O2196    1.0000 0.79487  0.56410  0.64000  Biso   1.000  O 
  O2197    1.0000 0.81916  0.58030  0.64000  Biso   1.000  O 
  O2198    1.0000 0.78677  0.58435  0.64000  Biso   1.000  O 
  O2199    1.0000 0.79892  0.59244  0.64000  Biso   1.000  O 
  O2200    1.0000 0.83941  0.56815  0.64000  Biso   1.000  O 
  O2201    1.0000 0.77058  0.54791  0.64000  Biso   1.000  O 
  O2202    1.0000 0.78273  0.55601  0.64000  Biso   1.000  O 
  O2203    1.0000 0.83131  0.58839  0.64000  Biso   1.000  O 
  O2204    1.0000 0.84345  0.59649  0.64000  Biso   1.000  O 
  O2205    1.0000 0.77463  0.57625  0.64000  Biso   1.000  O 
  O2206    1.0000 0.81107  0.60054  0.64000  Biso   1.000  O 
  O2207    1.0000 0.82321  0.60864  0.64000  Biso   1.000  O 
  O2208    1.0000 0.80297  0.54386  0.64000  Biso   1.000  O 
  O2209    1.0000 0.80702  0.64912  0.64000  Biso   1.000  O 
  O2210    1.0000 0.81511  0.62888  0.64000  Biso   1.000  O 
  O2211    1.0000 0.82726  0.63698  0.64000  Biso   1.000  O 
  O2212    1.0000 0.79487  0.64103  0.64000  Biso   1.000  O 
  O2213    1.0000 0.81916  0.65722  0.64000  Biso   1.000  O 
  O2214    1.0000 0.78677  0.66127  0.64000  Biso   1.000  O 
  O2215    1.0000 0.79892  0.66937  0.64000  Biso   1.000  O 
  O2216    1.0000 0.83941  0.64507  0.64000  Biso   1.000  O 
  O2217    1.0000 0.77058  0.62483  0.64000  Biso   1.000  O 
  O2218    1.0000 0.78273  0.63293  0.64000  Biso   1.000  O 
  O2219    1.0000 0.83131  0.66532  0.64000  Biso   1.000  O 
  O2220    1.0000 0.84345  0.67341  0.64000  Biso   1.000  O 
  O2221    1.0000 0.77463  0.65317  0.64000  Biso   1.000  O 
  O2222    1.0000 0.81107  0.67746  0.64000  Biso   1.000  O 
  O2223    1.0000 0.82321  0.68556  0.64000  Biso   1.000  O 
  O2224    1.0000 0.80297  0.62078  0.64000  Biso   1.000  O 
  O2225    1.0000 0.80702  0.72605  0.64000  Biso   1.000  O 
  O2226    1.0000 0.81511  0.70580  0.64000  Biso   1.000  O 
  O2227    1.0000 0.82726  0.71390  0.64000  Biso   1.000  O 
  O2228    1.0000 0.79487  0.71795  0.64000  Biso   1.000  O 
  O2229    1.0000 0.81916  0.73414  0.64000  Biso   1.000  O 
  O2230    1.0000 0.78677  0.73819  0.64000  Biso   1.000  O 
  O2231    1.0000 0.79892  0.74629  0.64000  Biso   1.000  O 
  O2232    1.0000 0.83941  0.72200  0.64000  Biso   1.000  O 
  O2233    1.0000 0.77058  0.70175  0.64000  Biso   1.000  O 
  O2234    1.0000 0.78273  0.70985  0.64000  Biso   1.000  O 
  O2235    1.0000 0.83131  0.74224  0.64000  Biso   1.000  O 
  O2236    1.0000 0.84345  0.75034  0.64000  Biso   1.000  O 
  O2237    1.0000 0.77463  0.73009  0.64000  Biso   1.000  O 
  O2238    1.0000 0.81107  0.75439  0.64000  Biso   1.000  O 
  O2239    1.0000 0.82321  0.76248  0.64000  Biso   1.000  O 
  O2240    1.0000 0.80297  0.69771  0.64000  Biso   1.000  O 
  O2241    1.0000 0.80702  0.80297  0.64000  Biso   1.000  O 
  O2242    1.0000 0.81511  0.78273  0.64000  Biso   1.000  O 
  O2243    1.0000 0.82726  0.79082  0.64000  Biso   1.000  O 
  O2244    1.0000 0.79487  0.79487  0.64000  Biso   1.000  O 
  O2245    1.0000 0.81916  0.81107  0.64000  Biso   1.000  O 
  O2246    1.0000 0.78677  0.81511  0.64000  Biso   1.000  O 
  O2247    1.0000 0.79892  0.82321  0.64000  Biso   1.000  O 
  O2248    1.0000 0.83941  0.79892  0.64000  Biso   1.000  O 
  O2249    1.0000 0.77058  0.77868  0.64000  Biso   1.000  O 
  O2250    1.0000 0.78273  0.78677  0.64000  Biso   1.000  O 
  O2251    1.0000 0.83131  0.81916  0.64000  Biso   1.000  O 
  O2252    1.0000 0.84345  0.82726  0.64000  Biso   1.000  O 
  O2253    1.0000 0.77463  0.80702  0.64000  Biso   1.000  O 
  O2254    1.0000 0.81107  0.83131  0.64000  Biso   1.000  O 
  O2255    1.0000 0.82321  0.83941  0.64000  Biso   1.000  O 
  O2256    1.0000 0.80297  0.77463  0.64000  Biso   1.000  O 
  O2257    1.0000 0.80702  0.87989  0.64000  Biso   1.000  O 
  O2258    1.0000 0.81511  0.85965  0.64000  Biso   1.000  O 
  O2259    1.0000 0.82726  0.86775  0.64000  Biso   1.000  O 
  O2260    1.0000 0.79487  0.87179  0.64000  Biso   1.000  O 
  O2261    1.0000 0.81916  0.88799  0.64000  Biso   1.000  O 
  O2262    1.0000 0.78677  0.89204  0.64000  Biso   1.000  O 
  O2263    1.0000 0.79892  0.90013  0.64000  Biso   1.000  O 
  O2264    1.0000 0.83941  0.87584  0.64000  Biso   1.000  O 
  O2265    1.0000 0.77058  0.85560  0.64000  Biso   1.000  O 
  O2266    1.0000 0.78273  0.86370  0.64000  Biso   1.000  O 
  O2267    1.0000 0.83131  0.89609  0.64000  Biso   1.000  O 
  O2268    1.0000 0.84345  0.90418  0.64000  Biso   1.000  O 
  O2269    1.0000 0.77463  0.88394  0.64000  Biso   1.000  O 
  O2270    1.0000 0.81107  0.90823  0.64000  Biso   1.000  O 
  O2271    1.0000 0.82321  0.91633  0.64000  Biso   1.000  O 
  O2272    1.0000 0.80297  0.85155  0.64000  Biso   1.000  O 
  O2273    1.0000 0.80702  0.95682  0.64000  Biso   1.000  O 
  O2274    1.0000 0.81511  0.93657  0.64000  Biso   1.000  O 
  O2275    1.0000 0.82726  0.94467  0.64000  Biso   1.000  O 
  O2276    1.0000 0.79487  0.94872  0.64000  Biso   1.000  O 
  O2277    1.0000 0.81916  0.96491  0.64000  Biso   1.000  O 
  O2278    1.0000 0.78677  0.96896  0.64000  Biso   1.000  O 
  O2279    1.0000 0.79892  0.97706  0.64000  Biso   1.000  O 
  O2280    1.0000 0.83941  0.95277  0.64000  Biso   1.000  O 
  O2281    1.0000 0.77058  0.93252  0.64000  Biso   1.000  O 
  O2282    1.0000 0.78273  0.94062  0.64000  Biso   1.000  O 
  O2283    1.0000 0.83131  0.97301  0.64000  Biso   1.000  O 
  O2284    1.0000 0.84345  0.98111  0.64000  Biso   1.000  O 
  O2285    1.0000 0.77463  0.96086  0.64000  Biso   1.000  O 
  O2286    1.0000 0.81107  0.98516  0.64000  Biso   1.000  O 
  O2287    1.0000 0.82321  0.99325  0.64000  Biso   1.000  O 
  O2288    1.0000 0.80297  0.92848  0.64000  Biso   1.000  O 
  O2289    1.0000 0.88394  0.03374  0.64000  Biso   1.000  O 
  O2290    1.0000 0.89204  0.01350  0.64000  Biso   1.000  O 
  O2291    1.0000 0.90418  0.02159  0.64000  Biso   1.000  O 
  O2292    1.0000 0.87179  0.02564  0.64000  Biso   1.000  O 
  O2293    1.0000 0.89609  0.04184  0.64000  Biso   1.000  O 
  O2294    1.0000 0.86370  0.04588  0.64000  Biso   1.000  O 
  O2295    1.0000 0.87584  0.05398  0.64000  Biso   1.000  O 
  O2296    1.0000 0.91633  0.02969  0.64000  Biso   1.000  O 
  O2297    1.0000 0.84750  0.00945  0.64000  Biso   1.000  O 
  O2298    1.0000 0.85965  0.01754  0.64000  Biso   1.000  O 
  O2299    1.0000 0.90823  0.04993  0.64000  Biso   1.000  O 
  O2300    1.0000 0.92038  0.05803  0.64000  Biso   1.000  O 
  O2301    1.0000 0.85155  0.03779  0.64000  Biso   1.000  O 
  O2302    1.0000 0.88799  0.06208  0.64000  Biso   1.000  O 
  O2303    1.0000 0.90013  0.07018  0.64000  Biso   1.000  O 
  O2304    1.0000 0.87989  0.00540  0.64000  Biso   1.000  O 
  O2305    1.0000 0.88394  0.11066  0.64000  Biso   1.000  O 
  O2306    1.0000 0.89204  0.09042  0.64000  Biso   1.000  O 
  O2307    1.0000 0.90418  0.09852  0.64000  Biso   1.000  O 
  O2308    1.0000 0.87179  0.10256  0.64000  Biso   1.000  O 
  O2309    1.0000 0.89609  0.11876  0.64000  Biso   1.000  O 
  O2310    1.0000 0.86370  0.12281  0.64000  Biso   1.000  O 
  O2311    1.0000 0.87584  0.13090  0.64000  Biso   1.000  O 
  O2312    1.0000 0.91633  0.10661  0.64000  Biso   1.000  O 
  O2313    1.0000 0.84750  0.08637  0.64000  Biso   1.000  O 
  O2314    1.0000 0.85965  0.09447  0.64000  Biso   1.000  O 
  O2315    1.0000 0.90823  0.12686  0.64000  Biso   1.000  O 
  O2316    1.0000 0.92038  0.13495  0.64000  Biso   1.000  O 
  O2317    1.0000 0.85155  0.11471  0.64000  Biso   1.000  O 
  O2318    1.0000 0.88799  0.13900  0.64000  Biso   1.000  O 
  O2319    1.0000 0.90013  0.14710  0.64000  Biso   1.000  O 
  O2320    1.0000 0.87989  0.08232  0.64000  Biso   1.000  O 
  O2321    1.0000 0.88394  0.18758  0.64000  Biso   1.000  O 
  O2322    1.0000 0.89204  0.16734  0.64000  Biso   1.000  O 
  O2323    1.0000 0.90418  0.17544  0.64000  Biso   1.000  O 
  O2324    1.0000 0.87179  0.17949  0.64000  Biso   1.000  O 
  O2325    1.0000 0.89609  0.19568  0.64000  Biso   1.000  O 
  O2326    1.0000 0.86370  0.19973  0.64000  Biso   1.000  O 
  O2327    1.0000 0.87584  0.20783  0.64000  Biso   1.000  O 
  O2328    1.0000 0.91633  0.18354  0.64000  Biso   1.000  O 
  O2329    1.0000 0.84750  0.16329  0.64000  Biso   1.000  O 
  O2330    1.0000 0.85965  0.17139  0.64000  Biso   1.000  O 
  O2331    1.0000 0.90823  0.20378  0.64000  Biso   1.000  O 
  O2332    1.0000 0.92038  0.21188  0.64000  Biso   1.000  O 
  O2333    1.0000 0.85155  0.19163  0.64000  Biso   1.000  O 
  O2334    1.0000 0.88799  0.21592  0.64000  Biso   1.000  O 
  O2335    1.0000 0.90013  0.22402  0.64000  Biso   1.000  O 
  O2336    1.0000 0.87989  0.15924  0.64000  Biso   1.000  O 
  O2337    1.0000 0.88394  0.26451  0.64000  Biso   1.000  O 
  O2338    1.0000 0.89204  0.24426  0.64000  Biso   1.000  O 
  O2339    1.0000 0.90418  0.25236  0.64000  Biso   1.000  O 
  O2340    1.0000 0.87179  0.25641  0.64000  Biso   1.000  O 
  O2341    1.0000 0.89609  0.27260  0.64000  Biso   1.000  O 
  O2342    1.0000 0.86370  0.27665  0.64000  Biso   1.000  O 
  O2343    1.0000 0.87584  0.28475  0.64000  Biso   1.000  O 
  O2344    1.0000 0.91633  0.26046  0.64000  Biso   1.000  O 
  O2345    1.0000 0.84750  0.24022  0.64000  Biso   1.000  O 
  O2346    1.0000 0.85965  0.24831  0.64000  Biso   1.000  O 
  O2347    1.0000 0.90823  0.28070  0.64000  Biso   1.000  O 
  O2348    1.0000 0.92038  0.28880  0.64000  Biso   1.000  O 
  O2349    1.0000 0.85155  0.26856  0.64000  Biso   1.000  O 
  O2350    1.0000 0.88799  0.29285  0.64000  Biso   1.000  O 
  O2351    1.0000 0.90013  0.30094  0.64000  Biso   1.000  O 
  O2352    1.0000 0.87989  0.23617  0.64000  Biso   1.000  O 
  O2353    1.0000 0.88394  0.34143  0.64000  Biso   1.000  O 
  O2354    1.0000 0.89204  0.32119  0.64000  Biso   1.000  O 
  O2355    1.0000 0.90418  0.32928  0.64000  Biso   1.000  O 
  O2356    1.0000 0.87179  0.33333  0.64000  Biso   1.000  O 
  O2357    1.0000 0.89609  0.34953  0.64000  Biso   1.000  O 
  O2358    1.0000 0.86370  0.35358  0.64000  Biso   1.000  O 
  O2359    1.0000 0.87584  0.36167  0.64000  Biso   1.000  O 
  O2360    1.0000 0.91633  0.33738  0.64000  Biso   1.000  O 
  O2361    1.0000 0.84750  0.31714  0.64000  Biso   1.000  O 
  O2362    1.0000 0.85965  0.32524  0.64000  Biso   1.000  O 
  O2363    1.0000 0.90823  0.35762  0.64000  Biso   1.000  O 
  O2364    1.0000 0.92038  0.36572  0.64000  Biso   1.000  O 
  O2365    1.0000 0.85155  0.34548  0.64000  Biso   1.000  O 
  O2366    1.0000 0.88799  0.36977  0.64000  Biso   1.000  O 
  O2367    1.0000 0.90013  0.37787  0.64000  Biso   1.000  O 
  O2368    1.0000 0.87989  0.31309  0.64000  Biso   1.000  O 
  O2369    1.0000 0.88394  0.41835  0.64000  Biso   1.000  O 
  O2370    1.0000 0.89204  0.39811  0.64000  Biso   1.000  O 
  O2371    1.0000 0.90418  0.40621  0.64000  Biso   1.000  O 
  O2372    1.0000 0.87179  0.41026  0.64000  Biso   1.000  O 
  O2373    1.0000 0.89609  0.42645  0.64000  Biso   1.000  O 
  O2374    1.0000 0.86370  0.43050  0.64000  Biso   1.000  O 
  O2375    1.0000 0.87584  0.43860  0.64000  Biso   1.000  O 
  O2376    1.0000 0.91633  0.41430  0.64000  Biso   1.000  O 
  O2377    1.0000 0.84750  0.39406  0.64000  Biso   1.000  O 
  O2378    1.0000 0.85965  0.40216  0.64000  Biso   1.000  O 
  O2379    1.0000 0.90823  0.43455  0.64000  Biso   1.000  O 
  O2380    1.0000 0.92038  0.44265  0.64000  Biso   1.000  O 
  O2381    1.0000 0.85155  0.42240  0.64000  Biso   1.000  O 
  O2382    1.0000 0.88799  0.44669  0.64000  Biso   1.000  O 
  O2383    1.0000 0.90013  0.45479  0.64000  Biso   1.000  O 
  O2384    1.0000 0.87989  0.39001  0.64000  Biso   1.000  O 
  O2385    1.0000 0.88394  0.49528  0.64000  Biso   1.000  O 
  O2386    1.0000 0.89204  0.47503  0.64000  Biso   1.000  O 
  O2387    1.0000 0.90418  0.48313  0.64000  Biso   1.000  O 
  O2388    1.0000 0.87179  0.48718  0.64000  Biso   1.000  O 
  O2389    1.0000 0.89609  0.50337  0.64000  Biso   1.000  O 
  O2390    1.0000 0.86370  0.50742  0.64000  Biso   1.000  O 
  O2391    1.0000 0.87584  0.51552  0.64000  Biso   1.000  O 
  O2392    1.0000 0.91633  0.49123  0.64000  Biso   1.000  O 
  O2393    1.0000 0.84750  0.47099  0.64000  Biso   1.000  O 
  O2394    1.0000 0.85965  0.47908  0.64000  Biso   1.000  O 
  O2395    1.0000 0.90823  0.51147  0.64000  Biso   1.000  O 
  O2396    1.0000 0.92038  0.51957  0.64000  Biso   1.000  O 
  O2397    1.0000 0.85155  0.49933  0.64000  Biso   1.000  O 
  O2398    1.0000 0.88799  0.52362  0.64000  Biso   1.000  O 
  O2399    1.0000 0.90013  0.53171  0.64000  Biso   1.000  O 
  O2400    1.0000 0.87989  0.46694  0.64000  Biso   1.000  O 
  O2401    1.0000 0.88394  0.57220  0.64000  Biso   1.000  O 
  O2402    1.0000 0.89204  0.55196  0.64000  Biso   1.000  O 
  O2403    1.0000 0.90418  0.56005  0.64000  Biso   1.000  O 
  O2404    1.0000 0.87179  0.56410  0.64000  Biso   1.000  O 
  O2405    1.0000 0.89609  0.58030  0.64000  Biso   1.000  O 
  O2406    1.0000 0.86370  0.58435  0.64000  Biso   1.000  O 
  O2407    1.0000 0.87584  0.59244  0.64000  Biso   1.000  O 
  O2408    1.0000 0.91633  0.56815  0.64000  Biso   1.000  O 
  O2409    1.0000 0.84750  0.54791  0.64000  Biso   1.000  O 
  O2410    1.0000 0.85965  0.55601  0.64000  Biso   1.000  O 
  O2411    1.0000 0.90823  0.58839  0.64000  Biso   1.000  O 
  O2412    1.0000 0.92038  0.59649  0.64000  Biso   1.000  O 
  O2413    1.0000 0.85155  0.57625  0.64000  Biso   1.000  O 
  O2414    1.0000 0.88799  0.60054  0.64000  Biso   1.000  O 
  O2415    1.0000 0.90013  0.60864  0.64000  Biso   1.000  O 
  O2416    1.0000 0.87989  0.54386  0.64000  Biso   1.000  O 
  O2417    1.0000 0.88394  0.64912  0.64000  Biso   1.000  O 
  O2418    1.0000 0.89204  0.62888  0.64000  Biso   1.000  O 
  O2419    1.0000 0.90418  0.63698  0.64000  Biso   1.000  O 
  O2420    1.0000 0.87179  0.64103  0.64000  Biso   1.000  O 
  O2421    1.0000 0.89609  0.65722  0.64000  Biso   1.000  O 
  O2422    1.0000 0.86370  0.66127  0.64000  Biso   1.000  O 
  O2423    1.0000 0.87584  0.66937  0.64000  Biso   1.000  O 
  O2424    1.0000 0.91633  0.64507  0.64000  Biso   1.000  O 
  O2425    1.0000 0.84750  0.62483  0.64000  Biso   1.000  O 
  O2426    1.0000 0.85965  0.63293  0.64000  Biso   1.000  O 
  O2427    1.0000 0.90823  0.66532  0.64000  Biso   1.000  O 
  O2428    1.0000 0.92038  0.67341  0.64000  Biso   1.000  O 
  O2429    1.0000 0.85155  0.65317  0.64000  Biso   1.000  O 
  O2430    1.0000 0.88799  0.67746  0.64000  Biso   1.000  O 
  O2431    1.0000 0.90013  0.68556  0.64000  Biso   1.000  O 
  O2432    1.0000 0.87989  0.62078  0.64000  Biso   1.000  O 
  O2433    1.0000 0.88394  0.72605  0.64000  Biso   1.000  O 
  O2434    1.0000 0.89204  0.70580  0.64000  Biso   1.000  O 
  O2435    1.0000 0.90418  0.71390  0.64000  Biso   1.000  O 
  O2436    1.0000 0.87179  0.71795  0.64000  Biso   1.000  O 
  O2437    1.0000 0.89609  0.73414  0.64000  Biso   1.000  O 
  O2438    1.0000 0.86370  0.73819  0.64000  Biso   1.000  O 
  O2439    1.0000 0.87584  0.74629  0.64000  Biso   1.000  O 
  O2440    1.0000 0.91633  0.72200  0.64000  Biso   1.000  O 
  O2441    1.0000 0.84750  0.70175  0.64000  Biso   1.000  O 
  O2442    1.0000 0.85965  0.70985  0.64000  Biso   1.000  O 
  O2443    1.0000 0.90823  0.74224  0.64000  Biso   1.000  O 
  O2444    1.0000 0.92038  0.75034  0.64000  Biso   1.000  O 
  O2445    1.0000 0.85155  0.73009  0.64000  Biso   1.000  O 
  O2446    1.0000 0.88799  0.75439  0.64000  Biso   1.000  O 
  O2447    1.0000 0.90013  0.76248  0.64000  Biso   1.000  O 
  O2448    1.0000 0.87989  0.69771  0.64000  Biso   1.000  O 
  O2449    1.0000 0.88394  0.80297  0.64000  Biso   1.000  O 
  O2450    1.0000 0.89204  0.78273  0.64000  Biso   1.000  O 
  O2451    1.0000 0.90418  0.79082  0.64000  Biso   1.000  O 
  O2452    1.0000 0.87179  0.79487  0.64000  Biso   1.000  O 
  O2453    1.0000 0.89609  0.81107  0.64000  Biso   1.000  O 
  O2454    1.0000 0.86370  0.81511  0.64000  Biso   1.000  O 
  O2455    1.0000 0.87584  0.82321  0.64000  Biso   1.000  O 
  O2456    1.0000 0.91633  0.79892  0.64000  Biso   1.000  O 
  O2457    1.0000 0.84750  0.77868  0.64000  Biso   1.000  O 
  O2458    1.0000 0.85965  0.78677  0.64000  Biso   1.000  O 
  O2459    1.0000 0.90823  0.81916  0.64000  Biso   1.000  O 
  O2460    1.0000 0.92038  0.82726  0.64000  Biso   1.000  O 
  O2461    1.0000 0.85155  0.80702  0.64000  Biso   1.000  O 
  O2462    1.0000 0.88799  0.83131  0.64000  Biso   1.000  O 
  O2463    1.0000 0.90013  0.83941  0.64000  Biso   1.000  O 
  O2464    1.0000 0.87989  0.77463  0.64000  Biso   1.000  O 
  O2465    1.0000 0.88394  0.87989  0.64000  Biso   1.000  O 
  O2466    1.0000 0.89204  0.85965  0.64000  Biso   1.000  O 
  O2467    1.0000 0.90418  0.86775  0.64000  Biso   1.000  O 
  O2468    1.0000 0.87179  0.87179  0.64000  Biso   1.000  O 
  O2469    1.0000 0.89609  0.88799  0.64000  Biso   1.000  O 
  O2470    1.0000 0.86370  0.89204  0.64000  Biso   1.000  O 
  O2471    1.0000 0.87584  0.90013  0.64000  Biso   1.000  O 
  O2472    1.0000 0.91633  0.87584  0.64000  Biso   1.000  O 
  O2473    1.0000 0.84750  0.85560  0.64000  Biso   1.000  O 
  O2474    1.0000 0.85965  0.86370  0.64000  Biso   1.000  O 
  O2475    1.0000 0.90823  0.89609  0.64000  Biso   1.000  O 
  O2476    1.0000 0.92038  0.90418  0.64000  Biso   1.000  O 
  O2477    1.0000 0.85155  0.88394  0.64000  Biso   1.000  O 
  O2478    1.0000 0.88799  0.90823  0.64000  Biso   1.000  O 
  O2479    1.0000 0.90013  0.91633  0.64000  Biso   1.000  O 
  O2480    1.0000 0.87989  0.85155  0.64000  Biso   1.000  O 
  O2481    1.0000 0.88394  0.95682  0.64000  Biso   1.000  O 
  O2482    1.0000 0.89204  0.93657  0.64000  Biso   1.000  O 
  O2483    1.0000 0.90418  0.94467  0.64000  Biso   1.000  O 
  O2484    1.0000 0.87179  0.94872  0.64000  Biso   1.000  O 
  O2485    1.0000 0.89609  0.96491  0.64000  Biso   1.000  O 
  O2486    1.0000 0.86370  0.96896  0.64000  Biso   1.000  O 
  O2487    1.0000 0.87584  0.97706  0.64000  Biso   1.000  O 
  O2488    1.0000 0.91633  0.95277  0.64000  Biso   1.000  O 
  O2489    1.0000 0.84750  0.93252  0.64000  Biso   1.000  O 
  O2490    1.0000 0.85965  0.94062  0.64000  Biso   1.000  O 
  O2491    1.0000 0.90823  0.97301  0.64000  Biso   1.000  O 
  O2492    1.0000 0.92038  0.98111  0.64000  Biso   1.000  O 
  O2493    1.0000 0.85155  0.96086  0.64000  Biso   1.000  O 
  O2494    1.0000 0.88799  0.98516  0.64000  Biso   1.000  O 
  O2495    1.0000 0.90013  0.99325  0.64000  Biso   1.000  O 
  O2496    1.0000 0.87989  0.92848  0.64000  Biso   1.000  O 
  O2497    1.0000 0.96086  0.03374  0.64000  Biso   1.000  O 
  O2498    1.0000 0.96896  0.01350  0.64000  Biso   1.000  O 
  O2499    1.0000 0.98111  0.02159  0.64000  Biso   1.000  O 
  O2500    1.0000 0.94872  0.02564  0.64000  Biso   1.000  O 
  O2501    1.0000 0.97301  0.04184  0.64000  Biso   1.000  O 
  O2502    1.0000 0.94062  0.04588  0.64000  Biso   1.000  O 
  O2503    1.0000 0.95277  0.05398  0.64000  Biso   1.000  O 
  O2504    1.0000 0.99325  0.02969  0.64000  Biso   1.000  O 
  O2505    1.0000 0.92443  0.00945  0.64000  Biso   1.000  O 
  O2506    1.0000 0.93657  0.01754  0.64000  Biso   1.000  O 
  O2507    1.0000 0.98516  0.04993  0.64000  Biso   1.000  O 
  O2508    1.0000 0.99730  0.05803  0.64000  Biso   1.000  O 
  O2509    1.0000 0.92848  0.03779  0.64000  Biso   1.000  O 
  O2510    1.0000 0.96491  0.06208  0.64000  Biso   1.000  O 
  O2511    1.0000 0.97706  0.07018  0.64000  Biso   1.000  O 
  O2512    1.0000 0.95682  0.00540  0.64000  Biso   1.000  O 
  O2513    1.0000 0.96086  0.11066  0.64000  Biso   1.000  O 
  O2514    1.0000 0.96896  0.09042  0.64000  Biso   1.000  O 
  O2515    1.0000 0.98111  0.09852  0.64000  Biso   1.000  O 
  O2516    1.0000 0.94872  0.10256  0.64000  Biso   1.000  O 
  O2517    1.0000 0.97301  0.11876  0.64000  Biso   1.000  O 
  O2518    1.0000 0.94062  0.12281  0.64000  Biso   1.000  O 
  O2519    1.0000 0.95277  0.13090  0.64000  Biso   1.000  O 
  O2520    1.0000 0.99325  0.10661  0.64000  Biso   1.000  O 
  O2521    1.0000 0.92443  0.08637  0.64000  Biso   1.000  O 
  O2522    1.0000 0.93657  0.09447  0.64000  Biso   1.000  O 
  O2523    1.0000 0.98516  0.12686  0.64000  Biso   1.000  O 
  O2524    1.0000 0.99730  0.13495  0.64000  Biso   1.000  O 
  O2525    1.0000 0.92848  0.11471  0.64000  Biso   1.000  O 
  O2526    1.0000 0.96491  0.13900  0.64000  Biso   1.000  O 
  O2527    1.0000 0.97706  0.14710  0.64000  Biso   1.000  O 
  O2528    1.0000 0.95682  0.08232  0.64000  Biso   1.000  O 
  O2529    1.0000 0.96086  0.18758  0.64000  Biso   1.000  O 
  O2530    1.0000 0.96896  0.16734  0.64000  Biso   1.000  O 
  O2531    1.0000 0.98111  0.17544  0.64000  Biso   1.000  O 
  O2532    1.0000 0.94872  0.17949  0.64000  Biso   1.000  O 
  O2533    1.0000 0.97301  0.19568  0.64000  Biso   1.000  O 
  O2534    1.0000 0.94062  0.19973  0.64000  Biso   1.000  O 
  O2535    1.0000 0.95277  0.20783  0.64000  Biso   1.000  O 
  O2536    1.0000 0.99325  0.18354  0.64000  Biso   1.000  O 
  O2537    1.0000 0.92443  0.16329  0.64000  Biso   1.000  O 
  O2538    1.0000 0.93657  0.17139  0.64000  Biso   1.000  O 
  O2539    1.0000 0.98516  0.20378  0.64000  Biso   1.000  O 
  O2540    1.0000 0.99730  0.21188  0.64000  Biso   1.000  O 
  O2541    1.0000 0.92848  0.19163  0.64000  Biso   1.000  O 
  O2542    1.0000 0.96491  0.21592  0.64000  Biso   1.000  O 
  O2543    1.0000 0.97706  0.22402  0.64000  Biso   1.000  O 
  O2544    1.0000 0.95682  0.15924  0.64000  Biso   1.000  O 
  O2545    1.0000 0.96086  0.26451  0.64000  Biso   1.000  O 
  O2546    1.0000 0.96896  0.24426  0.64000  Biso   1.000  O 
  O2547    1.0000 0.98111  0.25236  0.64000  Biso   1.000  O 
  O2548    1.0000 0.94872  0.25641  0.64000  Biso   1.000  O 
  O2549    1.0000 0.97301  0.27260  0.64000  Biso   1.000  O 
  O2550    1.0000 0.94062  0.27665  0.64000  Biso   1.000  O 
  O2551    1.0000 0.95277  0.28475  0.64000  Biso   1.000  O 
  O2552    1.0000 0.99325  0.26046  0.64000  Biso   1.000  O 
  O2553    1.0000 0.92443  0.24022  0.64000  Biso   1.000  O 
  O2554    1.0000 0.93657  0.24831  0.64000  Biso   1.000  O 
  O2555    1.0000 0.98516  0.28070  0.64000  Biso   1.000  O 
  O2556    1.0000 0.99730  0.28880  0.64000  Biso   1.000  O 
  O2557    1.0000 0.92848  0.26856  0.64000  Biso   1.000  O 
  O2558    1.0000 0.96491  0.29285  0.64000  Biso   1.000  O 
  O2559    1.0000 0.97706  0.30094  0.64000  Biso   1.000  O 
  O2560    1.0000 0.95682  0.23617  0.64000  Biso   1.000  O 
  O2561    1.0000 0.96086  0.34143  0.64000  Biso   1.000  O 
  O2562    1.0000 0.96896  0.32119  0.64000  Biso   1.000  O 
  O2563    1.0000 0.98111  0.32928  0.64000  Biso   1.000  O 
  O2564    1.0000 0.94872  0.33333  0.64000  Biso   1.000  O 
  O2565    1.0000 0.97301  0.34953  0.64000  Biso   1.000  O 
  O2566    1.0000 0.94062  0.35358  0.64000  Biso   1.000  O 
  O2567    1.0000 0.95277  0.36167  0.64000  Biso   1.000  O 
  O2568    1.0000 0.99325  0.33738  0.64000  Biso   1.000  O 
  O2569    1.0000 0.92443  0.31714  0.64000  Biso   1.000  O 
  O2570    1.0000 0.93657  0.32524  0.64000  Biso   1.000  O 
  O2571    1.0000 0.98516  0.35762  0.64000  Biso   1.000  O 
  O2572    1.0000 0.99730  0.36572  0.64000  Biso   1.000  O 
  O2573    1.0000 0.92848  0.34548  0.64000  Biso   1.000  O 
  O2574    1.0000 0.96491  0.36977  0.64000  Biso   1.000  O 
  O2575    1.0000 0.97706  0.37787  0.64000  Biso   1.000  O 
  O2576    1.0000 0.95682  0.31309  0.64000  Biso   1.000  O 
  O2577    1.0000 0.96086  0.41835  0.64000  Biso   1.000  O 
  O2578    1.0000 0.96896  0.39811  0.64000  Biso   1.000  O 
  O2579    1.0000 0.98111  0.40621  0.64000  Biso   1.000  O 
  O2580    1.0000 0.94872  0.41026  0.64000  Biso   1.000  O 
  O2581    1.0000 0.97301  0.42645  0.64000  Biso   1.000  O 
  O2582    1.0000 0.94062  0.43050  0.64000  Biso   1.000  O 
  O2583    1.0000 0.95277  0.43860  0.64000  Biso   1.000  O 
  O2584    1.0000 0.99325  0.41430  0.64000  Biso   1.000  O 
  O2585    1.0000 0.92443  0.39406  0.64000  Biso   1.000  O 
  O2586    1.0000 0.93657  0.40216  0.64000  Biso   1.000  O 
  O2587    1.0000 0.98516  0.43455  0.64000  Biso   1.000  O 
  O2588    1.0000 0.99730  0.44265  0.64000  Biso   1.000  O 
  O2589    1.0000 0.92848  0.42240  0.64000  Biso   1.000  O 
  O2590    1.0000 0.96491  0.44669  0.64000  Biso   1.000  O 
  O2591    1.0000 0.97706  0.45479  0.64000  Biso   1.000  O 
  O2592    1.0000 0.95682  0.39001  0.64000  Biso   1.000  O 
  O2593    1.0000 0.96086  0.49528  0.64000  Biso   1.000  O 
  O2594    1.0000 0.96896  0.47503  0.64000  Biso   1.000  O 
  O2595    1.0000 0.98111  0.48313  0.64000  Biso   1.000  O 
  O2596    1.0000 0.94872  0.48718  0.64000  Biso   1.000  O 
  O2597    1.0000 0.97301  0.50337  0.64000  Biso   1.000  O 
  O2598    1.0000 0.94062  0.50742  0.64000  Biso   1.000  O 
  O2599    1.0000 0.95277  0.51552  0.64000  Biso   1.000  O 
  O2600    1.0000 0.99325  0.49123  0.64000  Biso   1.000  O 
  O2601    1.0000 0.92443  0.47099  0.64000  Biso   1.000  O 
  O2602    1.0000 0.93657  0.47908  0.64000  Biso   1.000  O 
  O2603    1.0000 0.98516  0.51147  0.64000  Biso   1.000  O 
  O2604    1.0000 0.99730  0.51957  0.64000  Biso   1.000  O 
  O2605    1.0000 0.92848  0.49933  0.64000  Biso   1.000  O 
  O2606    1.0000 0.96491  0.52362  0.64000  Biso   1.000  O 
  O2607    1.0000 0.97706  0.53171  0.64000  Biso   1.000  O 
  O2608    1.0000 0.95682  0.46694  0.64000  Biso   1.000  O 
  O2609    1.0000 0.96086  0.57220  0.64000  Biso   1.000  O 
  O2610    1.0000 0.96896  0.55196  0.64000  Biso   1.000  O 
  O2611    1.0000 0.98111  0.56005  0.64000  Biso   1.000  O 
  O2612    1.0000 0.94872  0.56410  0.64000  Biso   1.000  O 
  O2613    1.0000 0.97301  0.58030  0.64000  Biso   1.000  O 
  O2614    1.0000 0.94062  0.58435  0.64000  Biso   1.000  O 
  O2615    1.0000 0.95277  0.59244  0.64000  Biso   1.000  O 
  O2616    1.0000 0.99325  0.56815  0.64000  Biso   1.000  O 
  O2617    1.0000 0.92443  0.54791  0.64000  Biso   1.000  O 
  O2618    1.0000 0.93657  0.55601  0.64000  Biso   1.000  O 
  O2619    1.0000 0.98516  0.58839  0.64000  Biso   1.000  O 
  O2620    1.0000 0.99730  0.59649  0.64000  Biso   1.000  O 
  O2621    1.0000 0.92848  0.57625  0.64000  Biso   1.000  O 
  O2622    1.0000 0.96491  0.60054  0.64000  Biso   1.000  O 
  O2623    1.0000 0.97706  0.60864  0.64000  Biso   1.000  O 
  O2624    1.0000 0.95682  0.54386  0.64000  Biso   1.000  O 
  O2625    1.0000 0.96086  0.64912  0.64000  Biso   1.000  O 
  O2626    1.0000 0.96896  0.62888  0.64000  Biso   1.000  O 
  O2627    1.0000 0.98111  0.63698  0.64000  Biso   1.000  O 
  O2628    1.0000 0.94872  0.64103  0.64000  Biso   1.000  O 
  O2629    1.0000 0.97301  0.65722  0.64000  Biso   1.000  O 
  O2630    1.0000 0.94062  0.66127  0.64000  Biso   1.000  O 
  O2631    1.0000 0.95277  0.66937  0.64000  Biso   1.000  O 
  O2632    1.0000 0.99325  0.64507  0.64000  Biso   1.000  O 
  O2633    1.0000 0.92443  0.62483  0.64000  Biso   1.000  O 
  O2634    1.0000 0.93657  0.63293  0.64000  Biso   1.000  O 
  O2635    1.0000 0.98516  0.66532  0.64000  Biso   1.000  O 
  O2636    1.0000 0.99730  0.67341  0.64000  Biso   1.000  O 
  O2637    1.0000 0.92848  0.65317  0.64000  Biso   1.000  O 
  O2638    1.0000 0.96491  0.67746  0.64000  Biso   1.000  O 
  O2639    1.0000 0.97706  0.68556  0.64000  Biso   1.000  O 
  O2640    1.0000 0.95682  0.62078  0.64000  Biso   1.000  O 
  O2641    1.0000 0.96086  0.72605  0.64000  Biso   1.000  O 
  O2642    1.0000 0.96896  0.70580  0.64000  Biso   1.000  O 
  O2643    1.0000 0.98111  0.71390  0.64000  Biso   1.000  O 
  O2644    1.0000 0.94872  0.71795  0.64000  Biso   1.000  O 
  O2645    1.0000 0.97301  0.73414  0.64000  Biso   1.000  O 
  O2646    1.0000 0.94062  0.73819  0.64000  Biso   1.000  O 
  O2647    1.0000 0.95277  0.74629  0.64000  Biso   1.000  O 
  O2648    1.0000 0.99325  0.72200  0.64000  Biso   1.000  O 
  O2649    1.0000 0.92443  0.70175  0.64000  Biso   1.000  O 
  O2650    1.0000 0.93657  0.70985  0.64000  Biso   1.000  O 
  O2651    1.0000 0.98516  0.74224  0.64000  Biso   1.000  O 
  O2652    1.0000 0.99730  0.75034  0.64000  Biso   1.000  O 
  O2653    1.0000 0.92848  0.73009  0.64000  Biso   1.000  O 
  O2654    1.0000 0.96491  0.75439  0.64000  Biso   1.000  O 
  O2655    1.0000 0.97706  0.76248  0.64000  Biso   1.000  O 
  O2656    1.0000 0.95682  0.69771  0.64000  Biso   1.000  O 
  O2657    1.0000 0.96086  0.80297  0.64000  Biso   1.000  O 
  O2658    1.0000 0.96896  0.78273  0.64000  Biso   1.000  O 
  O2659    1.0000 0.98111  0.79082  0.64000  Biso   1.000  O 
  O2660    1.0000 0.94872  0.79487  0.64000  Biso   1.000  O 
  O2661    1.0000 0.97301  0.81107  0.64000  Biso   1.000  O 
  O2662    1.0000 0.94062  0.81511  0.64000  Biso   1.000  O 
  O2663    1.0000 0.95277  0.82321  0.64000  Biso   1.000  O 
  O2664    1.0000 0.99325  0.79892  0.64000  Biso   1.000  O 
  O2665    1.0000 0.92443  0.77868  0.64000  Biso   1.000  O 
  O2666    1.0000 0.93657  0.78677  0.64000  Biso   1.000  O 
  O2667    1.0000 0.98516  0.81916  0.64000  Biso   1.000  O 
  O2668    1.0000 0.99730  0.82726  0.64000  Biso   1.000  O 
  O2669    1.0000 0.92848  0.80702  0.64000  Biso   1.000  O 
  O2670    1.0000 0.96491  0.83131  0.64000  Biso   1.000  O 
  O2671    1.0000 0.97706  0.83941  0.64000  Biso   1.000  O 
  O2672    1.0000 0.95682  0.77463  0.64000  Biso   1.000  O 
  O2673    1.0000 0.96086  0.87989  0.64000  Biso   1.000  O 
  O2674    1.0000 0.96896  0.85965  0.64000  Biso   1.000  O 
  O2675    1.0000 0.98111  0.86775  0.64000  Biso   1.000  O 
  O2676    1.0000 0.94872  0.87179  0.64000  Biso   1.000  O 
  O2677    1.0000 0.97301  0.88799  0.64000  Biso   1.000  O 
  O2678    1.0000 0.94062  0.89204  0.64000  Biso   1.000  O 
  O2679    1.0000 0.95277  0.90013  0.64000  Biso   1.000  O 
  O2680    1.0000 0.99325  0.87584  0.64000  Biso   1.000  O 
  O2681    1.0000 0.92443  0.85560  0.64000  Biso   1.000  O 
  O2682    1.0000 0.93657  0.86370  0.64000  Biso   1.000  O 
  O2683    1.0000 0.98516  0.89609  0.64000  Biso   1.000  O 
  O2684    1.0000 0.99730  0.90418  0.64000  Biso   1.000  O 
  O2685    1.0000 0.92848  0.88394  0.64000  Biso   1.000  O 
  O2686    1.0000 0.96491  0.90823  0.64000  Biso   1.000  O 
  O2687    1.0000 0.97706  0.91633  0.64000  Biso   1.000  O 
  O2688    1.0000 0.95682  0.85155  0.64000  Biso   1.000  O 
  O2689    1.0000 0.96086  0.95682  0.64000  Biso   1.000  O 
  O2690    1.0000 0.96896  0.93657  0.64000  Biso   1.000  O 
  O2691    1.0000 0.98111  0.94467  0.64000  Biso   1.000  O 
  O2692    1.0000 0.94872  0.94872  0.64000  Biso   1.000  O 
  O2693    1.0000 0.97301  0.96491  0.64000  Biso   1.000  O 
  O2694    1.0000 0.94062  0.96896  0.64000  Biso   1.000  O 
  O2695    1.0000 0.95277  0.97706  0.64000  Biso   1.000  O 
  O2696    1.0000 0.99325  0.95277  0.64000  Biso   1.000  O 
  O2697    1.0000 0.92443  0.93252  0.64000  Biso   1.000  O 
  O2698    1.0000 0.93657  0.94062  0.64000  Biso   1.000  O 
  O2699    1.0000 0.98516  0.97301  0.64000  Biso   1.000  O 
  O2700    1.0000 0.99730  0.98111  0.64000  Biso   1.000  O 
  O2701    1.0000 0.92848  0.96086  0.64000  Biso   1.000  O 
  O2702    1.0000 0.96491  0.98516  0.64000  Biso   1.000  O 
  O2703    1.0000 0.97706  0.99325  0.64000  Biso   1.000  O 
  O2704    1.0000 0.95682  0.92848  0.64000  Biso   1.000  O 
  Pd1      1.0000 0.03779  0.03374  0.67812  Biso   1.000  Pd
  Pd2      1.0000 0.00422  0.08410  0.67812  Biso   1.000  Pd
  Pd3      1.0000 0.97065  0.13446  0.67812  Biso   1.000  Pd
  Pd4      1.0000 0.93709  0.18481  0.67812  Biso   1.000  Pd
  Pd5      1.0000 0.90352  0.23517  0.67812  Biso   1.000  Pd
  Pd6      1.0000 0.86995  0.28553  0.67812  Biso   1.000  Pd
  Pd7      1.0000 0.83639  0.33589  0.67812  Biso   1.000  Pd
  Pd8      1.0000 0.80282  0.38625  0.67812  Biso   1.000  Pd
  Pd9      1.0000 0.76926  0.43661  0.67812  Biso   1.000  Pd
  Pd10     1.0000 0.73569  0.48697  0.67812  Biso   1.000  Pd
  Pd11     1.0000 0.70212  0.53733  0.67812  Biso   1.000  Pd
  Pd12     1.0000 0.66856  0.58768  0.67812  Biso   1.000  Pd
  Pd13     1.0000 0.63499  0.63804  0.67812  Biso   1.000  Pd
  Pd14     1.0000 0.60142  0.68840  0.67812  Biso   1.000  Pd
  Pd15     1.0000 0.56786  0.73876  0.67812  Biso   1.000  Pd
  Pd16     1.0000 0.53429  0.78912  0.67812  Biso   1.000  Pd
  Pd17     1.0000 0.50072  0.83948  0.67812  Biso   1.000  Pd
  Pd18     1.0000 0.46716  0.88984  0.67812  Biso   1.000  Pd
  Pd19     1.0000 0.43359  0.94020  0.67812  Biso   1.000  Pd
  Pd20     1.0000 0.40002  0.99056  0.67812  Biso   1.000  Pd
  Pd21     1.0000 0.36646  0.04091  0.67812  Biso   1.000  Pd
  Pd22     1.0000 0.33289  0.09127  0.67812  Biso   1.000  Pd
  Pd23     1.0000 0.29932  0.14163  0.67812  Biso   1.000  Pd
  Pd24     1.0000 0.26576  0.19199  0.67812  Biso   1.000  Pd
  Pd25     1.0000 0.23219  0.24235  0.67812  Biso   1.000  Pd
  Pd26     1.0000 0.19863  0.29271  0.67812  Biso   1.000  Pd
  Pd27     1.0000 0.16506  0.34307  0.67812  Biso   1.000  Pd
  Pd28     1.0000 0.13149  0.39343  0.67812  Biso   1.000  Pd
  Pd29     1.0000 0.09793  0.44378  0.67812  Biso   1.000  Pd
  Pd30     1.0000 0.06436  0.49414  0.67812  Biso   1.000  Pd
  Pd31     1.0000 0.03079  0.54450  0.67812  Biso   1.000  Pd
  Pd32     1.0000 0.99723  0.59486  0.67812  Biso   1.000  Pd
  Pd33     1.0000 0.96366  0.64522  0.67812  Biso   1.000  Pd
  Pd34     1.0000 0.93009  0.69558  0.67812  Biso   1.000  Pd
  Pd35     1.0000 0.89653  0.74594  0.67812  Biso   1.000  Pd
  Pd36     1.0000 0.86296  0.79630  0.67812  Biso   1.000  Pd
  Pd37     1.0000 0.82939  0.84665  0.67812  Biso   1.000  Pd
  Pd38     1.0000 0.79583  0.89701  0.67812  Biso   1.000  Pd
  Pd39     1.0000 0.76226  0.94737  0.67812  Biso   1.000  Pd
  Pd40     1.0000 0.72870  0.99773  0.67812  Biso   1.000  Pd
  Pd41     1.0000 0.69513  0.04809  0.67812  Biso   1.000  Pd
  Pd42     1.0000 0.66156  0.09845  0.67812  Biso   1.000  Pd
  Pd43     1.0000 0.62800  0.14881  0.67812  Biso   1.000  Pd
  Pd44     1.0000 0.59443  0.19917  0.67812  Biso   1.000  Pd
  Pd45     1.0000 0.56086  0.24952  0.67812  Biso   1.000  Pd
  Pd46     1.0000 0.52730  0.29988  0.67812  Biso   1.000  Pd
  Pd47     1.0000 0.49373  0.35024  0.67812  Biso   1.000  Pd
  Pd48     1.0000 0.46016  0.40060  0.67812  Biso   1.000  Pd
  Pd49     1.0000 0.42660  0.45096  0.67812  Biso   1.000  Pd
  Pd50     1.0000 0.39303  0.50132  0.67812  Biso   1.000  Pd
  Pd51     1.0000 0.35946  0.55168  0.67812  Biso   1.000  Pd
  Pd52     1.0000 0.32590  0.60204  0.67812  Biso   1.000  Pd
  Pd53     1.0000 0.29233  0.65239  0.67812  Biso   1.000  Pd
  Pd54     1.0000 0.25876  0.70275  0.67812  Biso   1.000  Pd
  Pd55     1.0000 0.22520  0.75311  0.67812  Biso   1.000  Pd
  Pd56     1.0000 0.19163  0.80347  0.67812  Biso   1.000  Pd
  Pd57     1.0000 0.15807  0.85383  0.67812  Biso   1.000  Pd
  Pd58     1.0000 0.12450  0.90419  0.67812  Biso   1.000  Pd
  Pd59     1.0000 0.09093  0.95455  0.67812  Biso   1.000  Pd
  Pd60     1.0000 0.05737  0.00491  0.67812  Biso   1.000  Pd
  Pd61     1.0000 0.02380  0.05526  0.67812  Biso   1.000  Pd
  Pd62     1.0000 0.99023  0.10562  0.67812  Biso   1.000  Pd
  Pd63     1.0000 0.95667  0.15598  0.67812  Biso   1.000  Pd
  Pd64     1.0000 0.92310  0.20634  0.67812  Biso   1.000  Pd
  Pd65     1.0000 0.88953  0.25670  0.67812  Biso   1.000  Pd
  Pd66     1.0000 0.03779  0.03374  0.67812  Biso   1.000  Pd
  Pd67     1.0000 0.03339  0.04254  0.67812  Biso   1.000  Pd
  Pd68     1.0000 0.02899  0.05135  0.67812  Biso   1.000  Pd
  Pd69     1.0000 0.02459  0.06015  0.67812  Biso   1.000  Pd
  Pd70     1.0000 0.02018  0.06895  0.67812  Biso   1.000  Pd
  Pd71     1.0000 0.01578  0.07776  0.67812  Biso   1.000  Pd
  Pd72     1.0000 0.01138  0.08656  0.67812  Biso   1.000  Pd
  Pd73     1.0000 0.00698  0.09536  0.67812  Biso   1.000  Pd
  Pd74     1.0000 0.00258  0.10417  0.67812  Biso   1.000  Pd
  Pd75     1.0000 0.99818  0.11297  0.67812  Biso   1.000  Pd
  Pd76     1.0000 0.03779  0.03374  0.67812  Biso   1.000  Pd
  Pd77     1.0000 0.02899  0.05135  0.67812  Biso   1.000  Pd
  Pd78     1.0000 0.02018  0.06895  0.67812  Biso   1.000  Pd
  Pd79     1.0000 0.01138  0.08656  0.67812  Biso   1.000  Pd
  Pd80     1.0000 0.00258  0.10417  0.67812  Biso   1.000  Pd
  Pd81     1.0000 0.99378  0.12178  0.67812  Biso   1.000  Pd
  Pd82     1.0000 0.98498  0.13938  0.67812  Biso   1.000  Pd
  Pd83     1.0000 0.97618  0.15699  0.67812  Biso   1.000  Pd
  Pd84     1.0000 0.96738  0.17460  0.67812  Biso   1.000  Pd
  Pd85     1.0000 0.95858  0.19221  0.67812  Biso   1.000  Pd
  Pd86     1.0000 0.03779  0.03374  0.67812  Biso   1.000  Pd
  Pd87     1.0000 0.02050  0.05967  0.67812  Biso   1.000  Pd
  Pd88     1.0000 0.00321  0.08561  0.67812  Biso   1.000  Pd
  Pd89     1.0000 0.98593  0.11154  0.67812  Biso   1.000  Pd
  Pd90     1.0000 0.96864  0.13748  0.67812  Biso   1.000  Pd
  Pd91     1.0000 0.95135  0.16341  0.67812  Biso   1.000  Pd
  Pd92     1.0000 0.93407  0.18935  0.67812  Biso   1.000  Pd
  Pd93     1.0000 0.91678  0.21528  0.67812  Biso   1.000  Pd
  Pd94     1.0000 0.89949  0.24122  0.67812  Biso   1.000  Pd
  Pd95     1.0000 0.88221  0.26715  0.67812  Biso   1.000  Pd
